
Spectre (R) Circuit Simulator
Version 18.1.0.077 64bit -- 1 Aug 2018
Copyright (C) 1989-2018 Cadence Design Systems, Inc. All rights reserved worldwide. Cadence and Spectre are registered trademarks of Cadence Design Systems, Inc. All others are the property of their respective holders.

Includes RSA BSAFE(R) Cryptographic or Security Protocol Software from RSA Security, Inc.

User: ADS+u1922268   Host: overpass.soe.warwick.ac.uk   HostID: EB0A1404   PID: 8472
Memory  available: 13.6068 GB  physical: 134.6517 GB
Linux   : Red Hat Enterprise Linux Server release 7.9 (Maipo)
CPU Type: Intel(R) Xeon(R) Gold 5220 CPU @ 2.20GHz
        Socket: Processors [Frequency] (Hyperthreaded Processor)
        0:       0 [2932.9] ( 36 ),  1 [1269.5] ( 37 ),  2 [2195.0] ( 38 )
                 3 [3178.9] ( 39 ),  4 [3452.7] ( 40 ),  5 [3240.2] ( 41 )
                 6 [3212.3] ( 42 ),  7 [3216.1] ( 43 ),  8 [3028.6] ( 44 )
                 9 [3118.1] ( 45 ), 10 [2214.4] ( 46 ), 11 [1000.0] ( 47 )
                12 [2369.3] ( 48 ), 13 [3122.1] ( 49 ), 14 [3378.7] ( 50 )
                15 [2849.0] ( 51 ), 16 [3163.4] ( 52 ), 17 [1514.4] ( 53 )
        1:      18 [3882.5] ( 54 ), 19 [2955.6] ( 55 ), 20 [3395.1] ( 56 )
                21 [3679.7] ( 57 ), 22 [3617.4] ( 58 ), 23 [2394.0] ( 59 )
                24 [2573.6] ( 60 ), 25 [2659.4] ( 61 ), 26 [3108.9] ( 62 )
                27 [1147.8] ( 63 ), 28 [3516.2] ( 64 ), 29 [3661.1] ( 65 )
                30 [1089.8] ( 66 ), 31 [1072.7] ( 67 ), 32 [3620.8] ( 68 )
                33 [1215.6] ( 69 ), 34 [1750.8] ( 70 ), 35 [1023.7] ( 71 )
        
System load averages (1min, 5min, 15min) : 0.4 %, 0.2 %, 0.1 %
Hyperthreading is enabled


Simulating `input.scs' on overpass.soe.warwick.ac.uk at 2:19:09 PM, Sat May 6, 2023 (process id: 8472).
Current working directory: /home/ADS/u1922268/es3d8/assignment/libraries/simulation/devices/nand3_pulse_tb/maestro/results/maestro/Interactive.0/1/devices:nand3_pulse_tb:1/netlist
Environment variable:
    CMI_CONFIG=/opt/Coventor/CoventorMP1.3/MEMS+6.5/runtime/cadence/skill/cmiMEMSplus
Command line:
     \
        /eda/cadence/2018-19/RHELx86/SPECTRE_18.10.077/tools.lnx86/bin/spectre  \
        -64 input.scs +escchars +log ../psf/spectre.out -format psfxl  \
        -raw ../psf +lqtimeout 900 -maxw 5 -maxn 5 -ahdllibdir  \
        /home/ADS/u1922268/es3d8/assignment/libraries/simulation/devices/nand3_pulse_tb/maestro/results/maestro/Interactive.0/sharedData/CDS/ahdl/input.ahdlSimDB  \
        +logstatus

Loading /eda/cadence/2018-19/RHELx86/SPECTRE_18.10.077/tools.lnx86/cmi/lib/64bit/5.0/libinfineon_sh.so ...
Loading /eda/cadence/2018-19/RHELx86/SPECTRE_18.10.077/tools.lnx86/cmi/lib/64bit/5.0/libphilips_o_sh.so ...
Loading /eda/cadence/2018-19/RHELx86/SPECTRE_18.10.077/tools.lnx86/cmi/lib/64bit/5.0/libphilips_sh.so ...
Loading /eda/cadence/2018-19/RHELx86/SPECTRE_18.10.077/tools.lnx86/cmi/lib/64bit/5.0/libsparam_sh.so ...
Loading /eda/cadence/2018-19/RHELx86/SPECTRE_18.10.077/tools.lnx86/cmi/lib/64bit/5.0/libstmodels_sh.so ...
Loading /opt/Coventor/CoventorMP1.3/MEMS+6.5/lib//libMEMSplusCadence_5.0.so ...
Reading file:  /home/ADS/u1922268/es3d8/assignment/libraries/simulation/devices/nand3_pulse_tb/maestro/results/maestro/Interactive.0/1/devices:nand3_pulse_tb:1/netlist/input.scs
Reading file:  /eda/cadence/2018-19/RHELx86/SPECTRE_18.10.077/tools.lnx86/spectre/etc/configs/mapsubckt.cfg
Reading file:  /eda/cadence/2018-19/RHELx86/SPECTRE_18.10.077/tools.lnx86/spectre/etc/configs/spectre.cfg
Reading file:  /eda/designKits/gpdk045_v_6_0/models/spectre/gpdk045.scs
Reading file:  /eda/designKits/gpdk045_v_6_0/models/spectre/gpdk045_mos.scs
Reading file:  /eda/designKits/gpdk045_v_6_0/models/spectre/gpdk045_diode.scs
Reading file:  /eda/designKits/gpdk045_v_6_0/models/spectre/gpdk045_bipolar.scs
Reading file:  /eda/designKits/gpdk045_v_6_0/models/spectre/gpdk045_mimcap.scs
Reading file:  /eda/designKits/gpdk045_v_6_0/models/spectre/gpdk045_moscap.scs
Reading file:  /eda/designKits/gpdk045_v_6_0/models/spectre/gpdk045_resistor.scs
Reading file:  /eda/designKits/gpdk045_v_6_0/models/spectre/gpdk045_inductor.scs
Reading file:  /eda/designKits/gpdk045_v_6_0/models/spectre/gpdk045_soa.scs
Time for NDB Parsing: CPU = 3.09939 s, elapsed = 3.17172 s.
Time accumulated: CPU = 3.11858 s, elapsed = 3.17174 s.
Peak resident memory used = 768 Mbytes.

Reading link:  /eda/cadence/2018-19/RHELx86/SPECTRE_18.10.077/tools.lnx86/spectre/etc/ahdl/discipline.h
Reading file:  /eda/cadence/2018-19/RHELx86/SPECTRE_18.10.077/tools.lnx86/spectre/etc/ahdl/disciplines.vams
Reading link:  /eda/cadence/2018-19/RHELx86/SPECTRE_18.10.077/tools.lnx86/spectre/etc/ahdl/constants.h
Reading file:  /eda/cadence/2018-19/RHELx86/SPECTRE_18.10.077/tools.lnx86/spectre/etc/ahdl/constants.vams
Existing shared object for module bsource_2b273e is up to date.
Installed compiled interface for bsource_2b273e.
Time for Elaboration: CPU = 363.459 ms, elapsed = 364.317 ms.
Time accumulated: CPU = 3.48214 s, elapsed = 3.53616 s.
Peak resident memory used = 880 Mbytes.


Warning from spectre during hierarchy flattening.
    WARNING (SPECTRE-17101): The value 'psf' specified using the 'checklimitdest' option will no longer be supported in future releases.


Time for EDB Visiting: CPU = 1.173 ms, elapsed = 1.17803 ms.
Time accumulated: CPU = 3.48341 s, elapsed = 3.53744 s.
Peak resident memory used = 881 Mbytes.


Global user options:
         psfversion = 1.1.0
            vabstol = 1e-06
            iabstol = 1e-12
               temp = 27
               gmin = 1e-12
             rforce = 1
           maxnotes = 5
           maxwarns = 5
             digits = 5
               cols = 80
             pivrel = 0.001
           sensfile = ../psf/sens.output
     checklimitdest = psf
               save = all
                pwr = all
             reltol = 0.001
               tnom = 27
             scalem = 1
              scale = 1

Scoped user options:

Circuit inventory:
              nodes 13
              bsim4 6     
     bsource_2b273e 6     
          capacitor 1     
            vsource 4     

Analysis and control statement inventory:
               info 7     
               tran 1     

Output statements:
             .probe 0     
           .measure 0     
               save 1     

Time for parsing: CPU = 9.649 ms, elapsed = 10.0849 ms.
Time accumulated: CPU = 3.49314 s, elapsed = 3.5476 s.
Peak resident memory used = 882 Mbytes.

~~~~~~~~~~~~~~~~~~~~~~
Pre-Simulation Summary
~~~~~~~~~~~~~~~~~~~~~~
~~~~~~~~~~~~~~~~~~~~~~

*************************************************
Transient Analysis `tran': time = (0 s -> 700 ns)
*************************************************

Notice from spectre during IC analysis, during transient analysis `tran'.
    GminDC = 1 pS is large enough to noticeably affect the DC solution.
        dV(I7.NM0:int_s) = 97.1978 mV
        Use the `gmin_check' option to eliminate or expand this report.

DC simulation time: CPU = 595 us, elapsed = 595.808 us.

Opening the PSFXL file ../psf/tran.tran.tran ...
Important parameter values:
    start = 0 s
    outputstart = 0 s
    stop = 700 ns
    step = 700 ps
    maxstep = 7 ns
    ic = all
    useprevic = no
    skipdc = no
    reltol = 100e-06
    abstol(V) = 1 uV
    abstol(I) = 1 pA
    temp = 27 C
    tnom = 27 C
    tempeffects = all
    errpreset = conservative
    method = gear2only
    lteratio = 10
    relref = alllocal
    cmin = 0 F
    gmin = 1 pS


Output and IC/nodeset summary:
                 save   4       (current)
                 save   29      (voltage)
                 others 20      

    tran: time = 17.5 ns      (2.5 %), step = 7 ns            (1 %)
    tran: time = 53.04 ns    (7.58 %), step = 556.7 ps    (79.5 m%)
    tran: time = 88.79 ns    (12.7 %), step = 6.007 ns     (858 m%)
    tran: time = 126.2 ns      (18 %), step = 7 ns            (1 %)
    tran: time = 157.6 ns    (22.5 %), step = 3.779 ns     (540 m%)
    tran: time = 192.6 ns    (27.5 %), step = 7 ns            (1 %)
    tran: time = 234 ns      (33.4 %), step = 7 ns            (1 %)
    tran: time = 264.5 ns    (37.8 %), step = 2.229 ns     (318 m%)
    tran: time = 298 ns      (42.6 %), step = 4.133 ns     (590 m%)
    tran: time = 336.5 ns    (48.1 %), step = 7 ns            (1 %)
    tran: time = 368.1 ns    (52.6 %), step = 2.635 ns     (376 m%)
    tran: time = 403 ns      (57.6 %), step = 669.9 ps    (95.7 m%)
    tran: time = 443.1 ns    (63.3 %), step = 7 ns            (1 %)
    tran: time = 473.2 ns    (67.6 %), step = 3.851 ns     (550 m%)
    tran: time = 508 ns      (72.6 %), step = 2.784 ns     (398 m%)
    tran: time = 548 ns      (78.3 %), step = 6.838 ns     (977 m%)
    tran: time = 579 ns      (82.7 %), step = 7 ns            (1 %)
    tran: time = 614.9 ns    (87.8 %), step = 2.462 ns     (352 m%)
    tran: time = 648 ns      (92.6 %), step = 3.57 ns      (510 m%)
    tran: time = 683.6 ns    (97.7 %), step = 5.225 ns     (746 m%)
Number of accepted tran steps =             892

Maximum value achieved for any signal of each quantity: 
V: V(I7.NM0:int_d) = 1.102 V
I: I(V0:p) = 6.253 uA

~~~~~~~~~~~~~~~~~~~~~~~~~~~~~~~~~
Post-Transient Simulation Summary
~~~~~~~~~~~~~~~~~~~~~~~~~~~~~~~~~
   -   To further speed up simulation, consider
          add ++aps on command line
   -   Non-default settings that could significantly slow down simulation
          errpreset = conservative, default moderate
~~~~~~~~~~~~~~~~~~~~~~~~~~~~~~~~~


During simulation, the CPU load for active processors is :
        Spectre  2 (56.5 %)      4 (1.1 %)       9 (1.1 %)      13 (5.6 %)
                18 (40.3 %)     19 (1.4 %)      27 (2.0 %)      41 (2.0 %)
                55 (2.0 %)      
        Other   
Initial condition solution time: CPU = 628 us, elapsed = 630.856 us.
Intrinsic tran analysis time:    CPU = 69.895 ms, elapsed = 70.2639 ms.
Total time required for tran analysis `tran': CPU = 71.846 ms, elapsed = 72.2179 ms.
Time accumulated: CPU = 3.58228 s, elapsed = 3.63715 s.
Peak resident memory used = 886 Mbytes.

finalTimeOP: writing operating point information to rawfile.

Opening the PSF file ../psf/finalTimeOP.info ...
modelParameter: writing model parameter values to rawfile.

Opening the PSF file ../psf/modelParameter.info ...
element: writing instance parameter values to rawfile.

Opening the PSF file ../psf/element.info ...
outputParameter: writing output parameter values to rawfile.

Opening the PSF file ../psf/outputParameter.info ...
designParamVals: writing netlist parameters to rawfile.

Opening the PSFASCII file ../psf/designParamVals.info ...
primitives: writing primitives to rawfile.

Opening the PSFASCII file ../psf/primitives.info.primitives ...
subckts: writing subcircuits to rawfile.

Opening the PSFASCII file ../psf/subckts.info.subckts ...

Aggregate audit (2:19:12 PM, Sat May 6, 2023):
Time used: CPU = 3.61 s, elapsed = 3.67 s, util. = 98.4%.
Time spent in licensing: elapsed = 33.2 ms.
Peak memory used = 886 Mbytes.
Simulation started at: 2:19:09 PM, Sat May 6, 2023, ended at: 2:19:12 PM, Sat May 6, 2023, with elapsed time (wall clock): 3.67 s.
spectre completes with 0 errors, 1 warning, and 1 notice.


********* LOG ENDS **************
**                             **
