
Spectre (R) Circuit Simulator
Version 18.1.0.077 64bit -- 1 Aug 2018
Copyright (C) 1989-2018 Cadence Design Systems, Inc. All rights reserved worldwide. Cadence and Spectre are registered trademarks of Cadence Design Systems, Inc. All others are the property of their respective holders.

Includes RSA BSAFE(R) Cryptographic or Security Protocol Software from RSA Security, Inc.

User: ADS+u1922268   Host: overpass.soe.warwick.ac.uk   HostID: EB0A1404   PID: 7611
Memory  available: 13.7970 GB  physical: 134.6517 GB
Linux   : Red Hat Enterprise Linux Server release 7.9 (Maipo)
CPU Type: Intel(R) Xeon(R) Gold 5220 CPU @ 2.20GHz
        Socket: Processors [Frequency] (Hyperthreaded Processor)
        0:       0 [1996.4] ( 36 ),  1 [3296.5] ( 37 ),  2 [3279.9] ( 38 )
                 3 [3276.0] ( 39 ),  4 [2853.9] ( 40 ),  5 [2002.6] ( 41 )
                 6 [1902.3] ( 42 ),  7 [2457.5] ( 43 ),  8 [2086.8] ( 44 )
                 9 [1604.7] ( 45 ), 10 [1000.1] ( 46 ), 11 [2947.0] ( 47 )
                12 [1926.9] ( 48 ), 13 [1547.0] ( 49 ), 14 [1151.3] ( 50 )
                15 [1312.6] ( 51 ), 16 [1000.0] ( 52 ), 17 [1612.0] ( 53 )
        1:      18 [2922.1] ( 54 ), 19 [3500.6] ( 55 ), 20 [3604.5] ( 56 )
                21 [3622.8] ( 57 ), 22 [1351.0] ( 58 ), 23 [2902.0] ( 59 )
                24 [2766.8] ( 60 ), 25 [1029.5] ( 61 ), 26 [1000.0] ( 62 )
                27 [1599.1] ( 63 ), 28 [1000.0] ( 64 ), 29 [1000.0] ( 65 )
                30 [1418.6] ( 66 ), 31 [1120.4] ( 67 ), 32 [2858.0] ( 68 )
                33 [1069.0] ( 69 ), 34 [1486.7] ( 70 ), 35 [1020.8] ( 71 )
        
System load averages (1min, 5min, 15min) : 0.3 %, 0.1 %, 0.1 %
Hyperthreading is enabled


Simulating `input.scs' on overpass.soe.warwick.ac.uk at 2:18:31 PM, Sat May 6, 2023 (process id: 7611).
Current working directory: /home/ADS/u1922268/es3d8/assignment/libraries/simulation/devices/nand2_pulse_tb/maestro/results/maestro/Interactive.0/1/devices:nand2_pulse_tb:1/netlist
Environment variable:
    CMI_CONFIG=/opt/Coventor/CoventorMP1.3/MEMS+6.5/runtime/cadence/skill/cmiMEMSplus
Command line:
     \
        /eda/cadence/2018-19/RHELx86/SPECTRE_18.10.077/tools.lnx86/bin/spectre  \
        -64 input.scs +escchars +log ../psf/spectre.out -format psfxl  \
        -raw ../psf +lqtimeout 900 -maxw 5 -maxn 5 -ahdllibdir  \
        /home/ADS/u1922268/es3d8/assignment/libraries/simulation/devices/nand2_pulse_tb/maestro/results/maestro/Interactive.0/sharedData/CDS/ahdl/input.ahdlSimDB  \
        +logstatus

Loading /eda/cadence/2018-19/RHELx86/SPECTRE_18.10.077/tools.lnx86/cmi/lib/64bit/5.0/libinfineon_sh.so ...
Loading /eda/cadence/2018-19/RHELx86/SPECTRE_18.10.077/tools.lnx86/cmi/lib/64bit/5.0/libphilips_o_sh.so ...
Loading /eda/cadence/2018-19/RHELx86/SPECTRE_18.10.077/tools.lnx86/cmi/lib/64bit/5.0/libphilips_sh.so ...
Loading /eda/cadence/2018-19/RHELx86/SPECTRE_18.10.077/tools.lnx86/cmi/lib/64bit/5.0/libsparam_sh.so ...
Loading /eda/cadence/2018-19/RHELx86/SPECTRE_18.10.077/tools.lnx86/cmi/lib/64bit/5.0/libstmodels_sh.so ...
Loading /opt/Coventor/CoventorMP1.3/MEMS+6.5/lib//libMEMSplusCadence_5.0.so ...
Reading file:  /home/ADS/u1922268/es3d8/assignment/libraries/simulation/devices/nand2_pulse_tb/maestro/results/maestro/Interactive.0/1/devices:nand2_pulse_tb:1/netlist/input.scs
Reading file:  /eda/cadence/2018-19/RHELx86/SPECTRE_18.10.077/tools.lnx86/spectre/etc/configs/mapsubckt.cfg
Reading file:  /eda/cadence/2018-19/RHELx86/SPECTRE_18.10.077/tools.lnx86/spectre/etc/configs/spectre.cfg
Reading file:  /eda/designKits/gpdk045_v_6_0/models/spectre/gpdk045.scs
Reading file:  /eda/designKits/gpdk045_v_6_0/models/spectre/gpdk045_mos.scs
Reading file:  /eda/designKits/gpdk045_v_6_0/models/spectre/gpdk045_diode.scs
Reading file:  /eda/designKits/gpdk045_v_6_0/models/spectre/gpdk045_bipolar.scs
Reading file:  /eda/designKits/gpdk045_v_6_0/models/spectre/gpdk045_mimcap.scs
Reading file:  /eda/designKits/gpdk045_v_6_0/models/spectre/gpdk045_moscap.scs
Reading file:  /eda/designKits/gpdk045_v_6_0/models/spectre/gpdk045_resistor.scs
Reading file:  /eda/designKits/gpdk045_v_6_0/models/spectre/gpdk045_inductor.scs
Reading file:  /eda/designKits/gpdk045_v_6_0/models/spectre/gpdk045_soa.scs
Time for NDB Parsing: CPU = 3.13962 s, elapsed = 3.2139 s.
Time accumulated: CPU = 3.1593 s, elapsed = 3.21391 s.
Peak resident memory used = 768 Mbytes.

Reading link:  /eda/cadence/2018-19/RHELx86/SPECTRE_18.10.077/tools.lnx86/spectre/etc/ahdl/discipline.h
Reading file:  /eda/cadence/2018-19/RHELx86/SPECTRE_18.10.077/tools.lnx86/spectre/etc/ahdl/disciplines.vams
Reading link:  /eda/cadence/2018-19/RHELx86/SPECTRE_18.10.077/tools.lnx86/spectre/etc/ahdl/constants.h
Reading file:  /eda/cadence/2018-19/RHELx86/SPECTRE_18.10.077/tools.lnx86/spectre/etc/ahdl/constants.vams
Existing shared object for module bsource_2b273e is up to date.
Installed compiled interface for bsource_2b273e.
Time for Elaboration: CPU = 361.546 ms, elapsed = 362.399 ms.
Time accumulated: CPU = 3.52094 s, elapsed = 3.5764 s.
Peak resident memory used = 880 Mbytes.


Warning from spectre during hierarchy flattening.
    WARNING (SPECTRE-17101): The value 'psf' specified using the 'checklimitdest' option will no longer be supported in future releases.


Time for EDB Visiting: CPU = 1.089 ms, elapsed = 1.09196 ms.
Time accumulated: CPU = 3.52213 s, elapsed = 3.57759 s.
Peak resident memory used = 881 Mbytes.


Global user options:
         psfversion = 1.1.0
            vabstol = 1e-06
            iabstol = 1e-12
               temp = 27
               gmin = 1e-12
             rforce = 1
           maxnotes = 5
           maxwarns = 5
             digits = 5
               cols = 80
             pivrel = 0.001
           sensfile = ../psf/sens.output
     checklimitdest = psf
               save = all
                pwr = all
             reltol = 0.001
               tnom = 27
             scalem = 1
              scale = 1

Scoped user options:

Circuit inventory:
              nodes 9
              bsim4 4     
     bsource_2b273e 4     
          capacitor 1     
            vsource 3     

Analysis and control statement inventory:
               info 7     
               tran 1     

Output statements:
             .probe 0     
           .measure 0     
               save 1     

Time for parsing: CPU = 9.416 ms, elapsed = 9.89008 ms.
Time accumulated: CPU = 3.53162 s, elapsed = 3.58756 s.
Peak resident memory used = 882 Mbytes.

~~~~~~~~~~~~~~~~~~~~~~
Pre-Simulation Summary
~~~~~~~~~~~~~~~~~~~~~~
~~~~~~~~~~~~~~~~~~~~~~

*************************************************
Transient Analysis `tran': time = (0 s -> 600 ns)
*************************************************

Notice from spectre during IC analysis, during transient analysis `tran'.
    GminDC = 1 pS is large enough to noticeably affect the DC solution.
        dV(I5.NM0:int_s) = 71.6306 mV
        Use the `gmin_check' option to eliminate or expand this report.

DC simulation time: CPU = 516 us, elapsed = 517.845 us.

Opening the PSFXL file ../psf/tran.tran.tran ...
Important parameter values:
    start = 0 s
    outputstart = 0 s
    stop = 600 ns
    step = 600 ps
    maxstep = 6 ns
    ic = all
    useprevic = no
    skipdc = no
    reltol = 100e-06
    abstol(V) = 1 uV
    abstol(I) = 1 pA
    temp = 27 C
    tnom = 27 C
    tempeffects = all
    errpreset = conservative
    method = gear2only
    lteratio = 10
    relref = alllocal
    cmin = 0 F
    gmin = 1 pS


Output and IC/nodeset summary:
                 save   3       (current)
                 save   12      (voltage)
                 others 14      

    tran: time = 15 ns        (2.5 %), step = 6 ns            (1 %)
    tran: time = 48 ns          (8 %), step = 4.5 ns       (750 m%)
    tran: time = 79.3 ns     (13.2 %), step = 4.51 ns      (752 m%)
    tran: time = 108 ns        (18 %), step = 3.722 ns     (620 m%)
    tran: time = 136.8 ns    (22.8 %), step = 6 ns            (1 %)
    tran: time = 168.6 ns    (28.1 %), step = 6 ns            (1 %)
    tran: time = 198 ns        (33 %), step = 5.402 ns     (900 m%)
    tran: time = 230.8 ns    (38.5 %), step = 6 ns            (1 %)
    tran: time = 255.3 ns    (42.5 %), step = 798 ps       (133 m%)
    tran: time = 289.3 ns    (48.2 %), step = 6 ns            (1 %)
    tran: time = 317.9 ns      (53 %), step = 3.95 ns      (658 m%)
    tran: time = 348 ns        (58 %), step = 3.05 ns      (508 m%)
    tran: time = 380.6 ns    (63.4 %), step = 6 ns            (1 %)
    tran: time = 408 ns        (68 %), step = 3.408 ns     (568 m%)
    tran: time = 436.8 ns    (72.8 %), step = 6 ns            (1 %)
    tran: time = 467 ns      (77.8 %), step = 2.621 ns     (437 m%)
    tran: time = 498 ns        (83 %), step = 4.348 ns     (725 m%)
    tran: time = 529.9 ns    (88.3 %), step = 6 ns            (1 %)
    tran: time = 556.6 ns    (92.8 %), step = 3.28 ns      (547 m%)
    tran: time = 586.6 ns    (97.8 %), step = 6 ns            (1 %)
Number of accepted tran steps =             815

Maximum value achieved for any signal of each quantity: 
V: V(I5.PM0:int_d) = 1.1 V
I: I(V0:p) = 6.325 uA

~~~~~~~~~~~~~~~~~~~~~~~~~~~~~~~~~
Post-Transient Simulation Summary
~~~~~~~~~~~~~~~~~~~~~~~~~~~~~~~~~
   -   To further speed up simulation, consider
          add ++aps on command line
   -   Non-default settings that could significantly slow down simulation
          errpreset = conservative, default moderate
~~~~~~~~~~~~~~~~~~~~~~~~~~~~~~~~~


During simulation, the CPU load for active processors is :
        Spectre  2 (1.7 %)       3 (3.1 %)       4 (3.9 %)       8 (1.9 %)
                18 (49.9 %)     27 (1.1 %)      38 (46.2 %)     39 (1.4 %)
                41 (2.8 %)      
        Other   
Initial condition solution time: CPU = 550 us, elapsed = 553.131 us.
Intrinsic tran analysis time:    CPU = 47.669 ms, elapsed = 48.043 ms.
Total time required for tran analysis `tran': CPU = 49.648 ms, elapsed = 50.024 ms.
Time accumulated: CPU = 3.59707 s, elapsed = 3.65343 s.
Peak resident memory used = 885 Mbytes.

finalTimeOP: writing operating point information to rawfile.

Opening the PSF file ../psf/finalTimeOP.info ...
modelParameter: writing model parameter values to rawfile.

Opening the PSF file ../psf/modelParameter.info ...
element: writing instance parameter values to rawfile.

Opening the PSF file ../psf/element.info ...
outputParameter: writing output parameter values to rawfile.

Opening the PSF file ../psf/outputParameter.info ...
designParamVals: writing netlist parameters to rawfile.

Opening the PSFASCII file ../psf/designParamVals.info ...
primitives: writing primitives to rawfile.

Opening the PSFASCII file ../psf/primitives.info.primitives ...
subckts: writing subcircuits to rawfile.

Opening the PSFASCII file ../psf/subckts.info.subckts ...

Aggregate audit (2:18:35 PM, Sat May 6, 2023):
Time used: CPU = 3.63 s, elapsed = 3.69 s, util. = 98.4%.
Time spent in licensing: elapsed = 35.5 ms.
Peak memory used = 886 Mbytes.
Simulation started at: 2:18:31 PM, Sat May 6, 2023, ended at: 2:18:35 PM, Sat May 6, 2023, with elapsed time (wall clock): 3.69 s.
spectre completes with 0 errors, 1 warning, and 1 notice.
