
Spectre (R) Circuit Simulator
Version 18.1.0.077 64bit -- 1 Aug 2018
Copyright (C) 1989-2018 Cadence Design Systems, Inc. All rights reserved worldwide. Cadence and Spectre are registered trademarks of Cadence Design Systems, Inc. All others are the property of their respective holders.

Includes RSA BSAFE(R) Cryptographic or Security Protocol Software from RSA Security, Inc.

User: ADS+u1922268   Host: overpass.soe.warwick.ac.uk   HostID: EB0A1404   PID: 9066
Memory  available: 13.5939 GB  physical: 134.6517 GB
Linux   : Red Hat Enterprise Linux Server release 7.9 (Maipo)
CPU Type: Intel(R) Xeon(R) Gold 5220 CPU @ 2.20GHz
        Socket: Processors [Frequency] (Hyperthreaded Processor)
        0:       0 [2029.7] ( 36 ),  1 [2046.7] ( 37 ),  2 [2735.8] ( 38 )
                 3 [3618.4] ( 39 ),  4 [2117.7] ( 40 ),  5 [2785.3] ( 41 )
                 6 [2761.8] ( 42 ),  7 [1918.6] ( 43 ),  8 [3030.6] ( 44 )
                 9 [2440.4] ( 45 ), 10 [3186.3] ( 46 ), 11 [3490.9] ( 47 )
                12 [2018.7] ( 48 ), 13 [2005.8] ( 49 ), 14 [2565.8] ( 50 )
                15 [2520.1] ( 51 ), 16 [1847.9] ( 52 ), 17 [3276.8] ( 53 )
        1:      18 [1000.4] ( 54 ), 19 [1072.6] ( 55 ), 20 [3671.5] ( 56 )
                21 [3669.4] ( 57 ), 22 [2911.0] ( 58 ), 23 [3519.0] ( 59 )
                24 [3498.9] ( 60 ), 25 [3088.8] ( 61 ), 26 [3490.8] ( 62 )
                27 [1541.0] ( 63 ), 28 [1169.0] ( 64 ), 29 [1593.6] ( 65 )
                30 [1295.2] ( 66 ), 31 [1000.2] ( 67 ), 32 [1000.2] ( 68 )
                33 [1162.6] ( 69 ), 34 [1000.2] ( 70 ), 35 [1000.0] ( 71 )
        
System load averages (1min, 5min, 15min) : 0.3 %, 0.2 %, 0.1 %
Hyperthreading is enabled


Simulating `input.scs' on overpass.soe.warwick.ac.uk at 2:19:50 PM, Sat May 6, 2023 (process id: 9066).
Current working directory: /home/ADS/u1922268/es3d8/assignment/libraries/simulation/devices/nor2_pulse_tb/maestro/results/maestro/Interactive.0/1/devices:nor2_pulse_tb:1/netlist
Environment variable:
    CMI_CONFIG=/opt/Coventor/CoventorMP1.3/MEMS+6.5/runtime/cadence/skill/cmiMEMSplus
Command line:
     \
        /eda/cadence/2018-19/RHELx86/SPECTRE_18.10.077/tools.lnx86/bin/spectre  \
        -64 input.scs +escchars +log ../psf/spectre.out -format psfxl  \
        -raw ../psf +lqtimeout 900 -maxw 5 -maxn 5 -ahdllibdir  \
        /home/ADS/u1922268/es3d8/assignment/libraries/simulation/devices/nor2_pulse_tb/maestro/results/maestro/Interactive.0/sharedData/CDS/ahdl/input.ahdlSimDB  \
        +logstatus

Loading /eda/cadence/2018-19/RHELx86/SPECTRE_18.10.077/tools.lnx86/cmi/lib/64bit/5.0/libinfineon_sh.so ...
Loading /eda/cadence/2018-19/RHELx86/SPECTRE_18.10.077/tools.lnx86/cmi/lib/64bit/5.0/libphilips_o_sh.so ...
Loading /eda/cadence/2018-19/RHELx86/SPECTRE_18.10.077/tools.lnx86/cmi/lib/64bit/5.0/libphilips_sh.so ...
Loading /eda/cadence/2018-19/RHELx86/SPECTRE_18.10.077/tools.lnx86/cmi/lib/64bit/5.0/libsparam_sh.so ...
Loading /eda/cadence/2018-19/RHELx86/SPECTRE_18.10.077/tools.lnx86/cmi/lib/64bit/5.0/libstmodels_sh.so ...
Loading /opt/Coventor/CoventorMP1.3/MEMS+6.5/lib//libMEMSplusCadence_5.0.so ...
Reading file:  /home/ADS/u1922268/es3d8/assignment/libraries/simulation/devices/nor2_pulse_tb/maestro/results/maestro/Interactive.0/1/devices:nor2_pulse_tb:1/netlist/input.scs
Reading file:  /eda/cadence/2018-19/RHELx86/SPECTRE_18.10.077/tools.lnx86/spectre/etc/configs/mapsubckt.cfg
Reading file:  /eda/cadence/2018-19/RHELx86/SPECTRE_18.10.077/tools.lnx86/spectre/etc/configs/spectre.cfg
Reading file:  /eda/designKits/gpdk045_v_6_0/models/spectre/gpdk045.scs
Reading file:  /eda/designKits/gpdk045_v_6_0/models/spectre/gpdk045_mos.scs
Reading file:  /eda/designKits/gpdk045_v_6_0/models/spectre/gpdk045_diode.scs
Reading file:  /eda/designKits/gpdk045_v_6_0/models/spectre/gpdk045_bipolar.scs
Reading file:  /eda/designKits/gpdk045_v_6_0/models/spectre/gpdk045_mimcap.scs
Reading file:  /eda/designKits/gpdk045_v_6_0/models/spectre/gpdk045_moscap.scs
Reading file:  /eda/designKits/gpdk045_v_6_0/models/spectre/gpdk045_resistor.scs
Reading file:  /eda/designKits/gpdk045_v_6_0/models/spectre/gpdk045_inductor.scs
Reading file:  /eda/designKits/gpdk045_v_6_0/models/spectre/gpdk045_soa.scs
Time for NDB Parsing: CPU = 3.09847 s, elapsed = 3.15861 s.
Time accumulated: CPU = 3.11732 s, elapsed = 3.15862 s.
Peak resident memory used = 768 Mbytes.

Reading link:  /eda/cadence/2018-19/RHELx86/SPECTRE_18.10.077/tools.lnx86/spectre/etc/ahdl/discipline.h
Reading file:  /eda/cadence/2018-19/RHELx86/SPECTRE_18.10.077/tools.lnx86/spectre/etc/ahdl/disciplines.vams
Reading link:  /eda/cadence/2018-19/RHELx86/SPECTRE_18.10.077/tools.lnx86/spectre/etc/ahdl/constants.h
Reading file:  /eda/cadence/2018-19/RHELx86/SPECTRE_18.10.077/tools.lnx86/spectre/etc/ahdl/constants.vams
Existing shared object for module bsource_2b273e is up to date.
Installed compiled interface for bsource_2b273e.
Time for Elaboration: CPU = 339.492 ms, elapsed = 340.299 ms.
Time accumulated: CPU = 3.4569 s, elapsed = 3.49902 s.
Peak resident memory used = 880 Mbytes.


Warning from spectre during hierarchy flattening.
    WARNING (SPECTRE-17101): The value 'psf' specified using the 'checklimitdest' option will no longer be supported in future releases.


Time for EDB Visiting: CPU = 1.152 ms, elapsed = 1.15514 ms.
Time accumulated: CPU = 3.45817 s, elapsed = 3.50029 s.
Peak resident memory used = 881 Mbytes.


Global user options:
         psfversion = 1.1.0
            vabstol = 1e-06
            iabstol = 1e-12
               temp = 27
               gmin = 1e-12
             rforce = 1
           maxnotes = 5
           maxwarns = 5
             digits = 5
               cols = 80
             pivrel = 0.001
           sensfile = ../psf/sens.output
     checklimitdest = psf
               save = all
                pwr = all
             reltol = 0.001
               tnom = 27
             scalem = 1
              scale = 1

Scoped user options:

Circuit inventory:
              nodes 9
              bsim4 4     
     bsource_2b273e 4     
          capacitor 1     
            vsource 3     

Analysis and control statement inventory:
               info 7     
               tran 1     

Output statements:
             .probe 0     
           .measure 0     
               save 1     

Time for parsing: CPU = 9.143 ms, elapsed = 9.59086 ms.
Time accumulated: CPU = 3.46739 s, elapsed = 3.50996 s.
Peak resident memory used = 882 Mbytes.

~~~~~~~~~~~~~~~~~~~~~~
Pre-Simulation Summary
~~~~~~~~~~~~~~~~~~~~~~
~~~~~~~~~~~~~~~~~~~~~~

*************************************************
Transient Analysis `tran': time = (0 s -> 600 ns)
*************************************************
DC simulation time: CPU = 426 us, elapsed = 427.961 us.

Opening the PSFXL file ../psf/tran.tran.tran ...
Important parameter values:
    start = 0 s
    outputstart = 0 s
    stop = 600 ns
    step = 600 ps
    maxstep = 6 ns
    ic = all
    useprevic = no
    skipdc = no
    reltol = 100e-06
    abstol(V) = 1 uV
    abstol(I) = 1 pA
    temp = 27 C
    tnom = 27 C
    tempeffects = all
    errpreset = conservative
    method = gear2only
    lteratio = 10
    relref = alllocal
    cmin = 0 F
    gmin = 1 pS


Output and IC/nodeset summary:
                 save   3       (current)
                 save   12      (voltage)
                 others 14      

    tran: time = 15 ns        (2.5 %), step = 6 ns            (1 %)
    tran: time = 48 ns          (8 %), step = 4.5 ns       (750 m%)
    tran: time = 77.84 ns      (13 %), step = 4.742 ns     (790 m%)
    tran: time = 105.7 ns    (17.6 %), step = 2.309 ns     (385 m%)
    tran: time = 140.9 ns    (23.5 %), step = 6 ns            (1 %)
    tran: time = 171 ns      (28.5 %), step = 6 ns            (1 %)
    tran: time = 198 ns        (33 %), step = 4.502 ns     (750 m%)
    tran: time = 228.7 ns    (38.1 %), step = 6 ns            (1 %)
    tran: time = 255.1 ns    (42.5 %), step = 904 ps       (151 m%)
    tran: time = 290.3 ns    (48.4 %), step = 6 ns            (1 %)
    tran: time = 318.9 ns    (53.1 %), step = 4.445 ns     (741 m%)
    tran: time = 348 ns        (58 %), step = 5.103 ns     (850 m%)
    tran: time = 375.8 ns    (62.6 %), step = 6 ns            (1 %)
    tran: time = 408 ns        (68 %), step = 3.363 ns     (560 m%)
    tran: time = 440.7 ns    (73.5 %), step = 6 ns            (1 %)
    tran: time = 466.1 ns    (77.7 %), step = 2.779 ns     (463 m%)
    tran: time = 498 ns        (83 %), step = 3.843 ns     (640 m%)
    tran: time = 530.9 ns    (88.5 %), step = 6 ns            (1 %)
    tran: time = 557.8 ns      (93 %), step = 3.883 ns     (647 m%)
    tran: time = 587.8 ns      (98 %), step = 6 ns            (1 %)
Number of accepted tran steps =             906

Maximum value achieved for any signal of each quantity: 
V: V(I7.PM3:int_d) = 1.154 V
I: I(V0:p) = 6.908 uA

~~~~~~~~~~~~~~~~~~~~~~~~~~~~~~~~~
Post-Transient Simulation Summary
~~~~~~~~~~~~~~~~~~~~~~~~~~~~~~~~~
   -   To further speed up simulation, consider
          add ++aps on command line
   -   Non-default settings that could significantly slow down simulation
          errpreset = conservative, default moderate
~~~~~~~~~~~~~~~~~~~~~~~~~~~~~~~~~


During simulation, the CPU load for active processors is :
        Spectre  3 (6.0 %)       5 (2.8 %)       8 (2.0 %)       9 (2.3 %)
                18 (73.0 %)     21 (1.4 %)      22 (4.8 %)      27 (1.4 %)
                37 (2.3 %)      38 (25.0 %)     43 (2.3 %)      57 (1.1 %)
        Other   
Initial condition solution time: CPU = 466 us, elapsed = 468.016 us.
Intrinsic tran analysis time:    CPU = 52.416 ms, elapsed = 52.721 ms.
Total time required for tran analysis `tran': CPU = 54.216 ms, elapsed = 54.522 ms.
Time accumulated: CPU = 3.53596 s, elapsed = 3.57887 s.
Peak resident memory used = 885 Mbytes.

finalTimeOP: writing operating point information to rawfile.

Opening the PSF file ../psf/finalTimeOP.info ...
modelParameter: writing model parameter values to rawfile.

Opening the PSF file ../psf/modelParameter.info ...
element: writing instance parameter values to rawfile.

Opening the PSF file ../psf/element.info ...
outputParameter: writing output parameter values to rawfile.

Opening the PSF file ../psf/outputParameter.info ...
designParamVals: writing netlist parameters to rawfile.

Opening the PSFASCII file ../psf/designParamVals.info ...
primitives: writing primitives to rawfile.

Opening the PSFASCII file ../psf/primitives.info.primitives ...
subckts: writing subcircuits to rawfile.

Opening the PSFASCII file ../psf/subckts.info.subckts ...

Aggregate audit (2:19:54 PM, Sat May 6, 2023):
Time used: CPU = 3.57 s, elapsed = 3.61 s, util. = 98.8%.
Time spent in licensing: elapsed = 30.1 ms.
Peak memory used = 886 Mbytes.
Simulation started at: 2:19:50 PM, Sat May 6, 2023, ended at: 2:19:54 PM, Sat May 6, 2023, with elapsed time (wall clock): 3.61 s.
spectre completes with 0 errors, 1 warning, and 0 notices.


********* LOG ENDS **************
**                             **
