
Spectre (R) Circuit Simulator
Version 18.1.0.077 64bit -- 1 Aug 2018
Copyright (C) 1989-2018 Cadence Design Systems, Inc. All rights reserved worldwide. Cadence and Spectre are registered trademarks of Cadence Design Systems, Inc. All others are the property of their respective holders.

Includes RSA BSAFE(R) Cryptographic or Security Protocol Software from RSA Security, Inc.

User: ADS+u1922268   Host: overpass.soe.warwick.ac.uk   HostID: EB0A1404   PID: 33359
Memory  available: 14.5486 GB  physical: 134.6517 GB
Linux   : Red Hat Enterprise Linux Server release 7.9 (Maipo)
CPU Type: Intel(R) Xeon(R) Gold 5220 CPU @ 2.20GHz
        Socket: Processors [Frequency] (Hyperthreaded Processor)
        0:       0 [2131.7] ( 36 ),  1 [3193.9] ( 37 ),  2 [3526.9] ( 38 )
                 3 [3660.4] ( 39 ),  4 [1981.7] ( 40 ),  5 [3198.4] ( 41 )
                 6 [2585.6] ( 42 ),  7 [3254.5] ( 43 ),  8 [1695.0] ( 44 )
                 9 [3721.4] ( 45 ), 10 [2913.8] ( 46 ), 11 [1874.2] ( 47 )
                12 [1494.0] ( 48 ), 13 [2960.7] ( 49 ), 14 [1023.7] ( 50 )
                15 [1542.4] ( 51 ), 16 [1729.1] ( 52 ), 17 [1521.2] ( 53 )
        1:      18 [1000.0] ( 54 ), 19 [3844.8] ( 55 ), 20 [3427.7] ( 56 )
                21 [2824.0] ( 57 ), 22 [2647.1] ( 58 ), 23 [3850.7] ( 59 )
                24 [3434.5] ( 60 ), 25 [2812.2] ( 61 ), 26 [2899.3] ( 62 )
                27 [1467.1] ( 63 ), 28 [3011.4] ( 64 ), 29 [2194.5] ( 65 )
                30 [1000.2] ( 66 ), 31 [2194.2] ( 67 ), 32 [2067.6] ( 68 )
                33 [3291.8] ( 69 ), 34 [1131.0] ( 70 ), 35 [2197.3] ( 71 )
        
System load averages (1min, 5min, 15min) : 0.1 %, 0.1 %, 0.1 %
Hyperthreading is enabled


Simulating `input.scs' on overpass.soe.warwick.ac.uk at 9:11:07 PM, Wed May 3, 2023 (process id: 33359).
Current working directory: /home/ADS/u1922268/es3d8/assignment/libraries/simulation/devices/comparator_tb/maestro/results/maestro/Interactive.0/1/devices:comparator_tb:1/netlist
Environment variable:
    CMI_CONFIG=/opt/Coventor/CoventorMP1.3/MEMS+6.5/runtime/cadence/skill/cmiMEMSplus
Command line:
     \
        /eda/cadence/2018-19/RHELx86/SPECTRE_18.10.077/tools.lnx86/bin/spectre  \
        -64 input.scs +escchars +log ../psf/spectre.out -format psfxl  \
        -raw ../psf +lqtimeout 900 -maxw 5 -maxn 5 -ahdllibdir  \
        /home/ADS/u1922268/es3d8/assignment/libraries/simulation/devices/comparator_tb/maestro/results/maestro/Interactive.0/sharedData/CDS/ahdl/input.ahdlSimDB  \
        +logstatus

Loading /eda/cadence/2018-19/RHELx86/SPECTRE_18.10.077/tools.lnx86/cmi/lib/64bit/5.0/libinfineon_sh.so ...
Loading /eda/cadence/2018-19/RHELx86/SPECTRE_18.10.077/tools.lnx86/cmi/lib/64bit/5.0/libphilips_o_sh.so ...
Loading /eda/cadence/2018-19/RHELx86/SPECTRE_18.10.077/tools.lnx86/cmi/lib/64bit/5.0/libphilips_sh.so ...
Loading /eda/cadence/2018-19/RHELx86/SPECTRE_18.10.077/tools.lnx86/cmi/lib/64bit/5.0/libsparam_sh.so ...
Loading /eda/cadence/2018-19/RHELx86/SPECTRE_18.10.077/tools.lnx86/cmi/lib/64bit/5.0/libstmodels_sh.so ...
Loading /opt/Coventor/CoventorMP1.3/MEMS+6.5/lib//libMEMSplusCadence_5.0.so ...
Reading file:  /home/ADS/u1922268/es3d8/assignment/libraries/simulation/devices/comparator_tb/maestro/results/maestro/Interactive.0/1/devices:comparator_tb:1/netlist/input.scs
Reading file:  /eda/cadence/2018-19/RHELx86/SPECTRE_18.10.077/tools.lnx86/spectre/etc/configs/mapsubckt.cfg
Reading file:  /eda/cadence/2018-19/RHELx86/SPECTRE_18.10.077/tools.lnx86/spectre/etc/configs/spectre.cfg
Reading file:  /eda/designKits/gpdk045_v_6_0/models/spectre/gpdk045.scs
Reading file:  /eda/designKits/gpdk045_v_6_0/models/spectre/gpdk045_mos.scs
Reading file:  /eda/designKits/gpdk045_v_6_0/models/spectre/gpdk045_diode.scs
Reading file:  /eda/designKits/gpdk045_v_6_0/models/spectre/gpdk045_bipolar.scs
Reading file:  /eda/designKits/gpdk045_v_6_0/models/spectre/gpdk045_mimcap.scs
Reading file:  /eda/designKits/gpdk045_v_6_0/models/spectre/gpdk045_moscap.scs
Reading file:  /eda/designKits/gpdk045_v_6_0/models/spectre/gpdk045_resistor.scs
Reading file:  /eda/designKits/gpdk045_v_6_0/models/spectre/gpdk045_inductor.scs
Reading file:  /eda/designKits/gpdk045_v_6_0/models/spectre/gpdk045_soa.scs
Time for NDB Parsing: CPU = 3.10105 s, elapsed = 3.17896 s.
Time accumulated: CPU = 3.12387 s, elapsed = 3.17897 s.
Peak resident memory used = 772 Mbytes.

Reading link:  /eda/cadence/2018-19/RHELx86/SPECTRE_18.10.077/tools.lnx86/spectre/etc/ahdl/discipline.h
Reading file:  /eda/cadence/2018-19/RHELx86/SPECTRE_18.10.077/tools.lnx86/spectre/etc/ahdl/disciplines.vams
Reading link:  /eda/cadence/2018-19/RHELx86/SPECTRE_18.10.077/tools.lnx86/spectre/etc/ahdl/constants.h
Reading file:  /eda/cadence/2018-19/RHELx86/SPECTRE_18.10.077/tools.lnx86/spectre/etc/ahdl/constants.vams
Opening directory /home/ADS/u1922268/es3d8/assignment/libraries/simulation/devices/comparator_tb/maestro/results/maestro/Interactive.0/sharedData/CDS/ahdl/input.ahdlSimDB (775)
Created directory /home/ADS/u1922268/es3d8/assignment/libraries/simulation/devices/comparator_tb/maestro/results/maestro/Interactive.0/sharedData/CDS/ahdl/input.ahdlSimDB/bsource_2b273e.va.bsource_2b273e.ahdlcmi/ (775)
Created directory /home/ADS/u1922268/es3d8/assignment/libraries/simulation/devices/comparator_tb/maestro/results/maestro/Interactive.0/sharedData/CDS/ahdl/input.ahdlSimDB/bsource_2b273e.va.bsource_2b273e.ahdlcmi/Linux-64/ (775)
Compiling ahdlcmi module library for bsource_2b273e.
Finished compilation in 740 ms (elapsed) for bsource_2b273e.
Installed compiled interface for bsource_2b273e.
Time for Elaboration: CPU = 370.966 ms, elapsed = 1.11202 s.
Time accumulated: CPU = 3.49493 s, elapsed = 4.29108 s.
Peak resident memory used = 891 Mbytes.


Warning from spectre during hierarchy flattening.
    WARNING (SPECTRE-17101): The value 'psf' specified using the 'checklimitdest' option will no longer be supported in future releases.


Time for EDB Visiting: CPU = 5.616 ms, elapsed = 5.63097 ms.
Time accumulated: CPU = 3.50066 s, elapsed = 4.29682 s.
Peak resident memory used = 892 Mbytes.


Global user options:
         psfversion = 1.1.0
            vabstol = 1e-06
            iabstol = 1e-12
               temp = 27
               gmin = 1e-12
             rforce = 1
           maxnotes = 5
           maxwarns = 5
             digits = 5
               cols = 80
             pivrel = 0.001
           sensfile = ../psf/sens.output
     checklimitdest = psf
               save = all
                pwr = all
             reltol = 0.001
               tnom = 27
             scalem = 1
              scale = 1

Scoped user options:

Circuit inventory:
              nodes 138
              bsim4 86    
     bsource_2b273e 86    
          capacitor 3     
            vsource 9     

Analysis and control statement inventory:
               info 7     
               tran 1     

Output statements:
             .probe 0     
           .measure 0     
               save 1     

Time for parsing: CPU = 9.788 ms, elapsed = 10.2122 ms.
Time accumulated: CPU = 3.51053 s, elapsed = 4.30711 s.
Peak resident memory used = 894 Mbytes.

~~~~~~~~~~~~~~~~~~~~~~
Pre-Simulation Summary
~~~~~~~~~~~~~~~~~~~~~~
~~~~~~~~~~~~~~~~~~~~~~

************************************************
Transient Analysis `tran': time = (0 s -> 13 us)
************************************************
Trying `homotopy = gmin' for initial conditions.

Notice from spectre during IC analysis, during transient analysis `tran'.
    GminDC = 1 pS is large enough to noticeably affect the DC solution.
        dV(I17.I15|NM1:int_d) = -14.2483 mV
        Use the `gmin_check' option to eliminate or expand this report.
    Bad pivoting is found during DC analysis. Option dc_pivot_check=yes is recommended for possible improvement of convergence.

DC simulation time: CPU = 50.027 ms, elapsed = 50.1451 ms.

Opening the PSFXL file ../psf/tran.tran.tran ...
Important parameter values:
    start = 0 s
    outputstart = 0 s
    stop = 13 us
    step = 13 ns
    maxstep = 130 ns
    ic = all
    useprevic = no
    skipdc = no
    reltol = 100e-06
    abstol(V) = 1 uV
    abstol(I) = 1 pA
    temp = 27 C
    tnom = 27 C
    tempeffects = all
    errpreset = conservative
    method = gear2only
    lteratio = 10
    relref = alllocal
    cmin = 0 F
    gmin = 1 pS


Output and IC/nodeset summary:
                 save   9       (current)
                 save   321     (voltage)
                 others 260     

    tran: time = 335.8 ns    (2.58 %), step = 12.23 ns    (94.1 m%)
    tran: time = 984.4 ns    (7.57 %), step = 13.56 ns     (104 m%)
    tran: time = 1.626 us    (12.5 %), step = 5.027 ns    (38.7 m%)
    tran: time = 2.276 us    (17.5 %), step = 5.109 ns    (39.3 m%)
    tran: time = 2.928 us    (22.5 %), step = 13.91 ns     (107 m%)
    tran: time = 3.577 us    (27.5 %), step = 13.26 ns     (102 m%)
    tran: time = 4.23 us     (32.5 %), step = 5.86 ns     (45.1 m%)
    tran: time = 4.876 us    (37.5 %), step = 5.107 ns    (39.3 m%)
    tran: time = 5.534 us    (42.6 %), step = 13.95 ns     (107 m%)
    tran: time = 6.178 us    (47.5 %), step = 14.13 ns     (109 m%)
    tran: time = 6.827 us    (52.5 %), step = 5.094 ns    (39.2 m%)
    tran: time = 7.476 us    (57.5 %), step = 12.85 ns    (98.8 m%)
    tran: time = 8.134 us    (62.6 %), step = 8.837 ns      (68 m%)
    tran: time = 8.785 us    (67.6 %), step = 13.48 ns     (104 m%)
    tran: time = 9.427 us    (72.5 %), step = 5.172 ns    (39.8 m%)
    tran: time = 10.08 us    (77.5 %), step = 5.104 ns    (39.3 m%)
    tran: time = 10.74 us    (82.6 %), step = 12.25 ns    (94.2 m%)
    tran: time = 11.4 us     (87.7 %), step = 23.16 ns     (178 m%)
    tran: time = 12.03 us    (92.5 %), step = 5.063 ns    (38.9 m%)
    tran: time = 12.68 us    (97.5 %), step = 5.081 ns    (39.1 m%)
Number of accepted tran steps =             32017

Maximum value achieved for any signal of each quantity: 
V: V(I17.I24|PM1:int_d) = 1.232 V
I: I(V0:p) = 57.79 uA

~~~~~~~~~~~~~~~~~~~~~~~~~~~~~~~~~
Post-Transient Simulation Summary
~~~~~~~~~~~~~~~~~~~~~~~~~~~~~~~~~
   -   To further speed up simulation, consider
          add ++aps on command line
   -   Non-default settings that could significantly slow down simulation
          errpreset = conservative, default moderate
~~~~~~~~~~~~~~~~~~~~~~~~~~~~~~~~~


During simulation, the CPU load for active processors is :
        Spectre  8 (1.8 %)      19 (3.4 %)      23 (85.1 %)     32 (12.1 %)
        Other   
Initial condition solution time: CPU = 50.06 ms, elapsed = 50.1771 ms.
Intrinsic tran analysis time:    CPU = 24.6441 s, elapsed = 24.7026 s.
Total time required for tran analysis `tran': CPU = 24.6964 s, elapsed = 24.755 s.
Time accumulated: CPU = 28.7113 s, elapsed = 29.5677 s.
Peak resident memory used = 1.16 Gbytes.

finalTimeOP: writing operating point information to rawfile.

Opening the PSF file ../psf/finalTimeOP.info ...
modelParameter: writing model parameter values to rawfile.

Opening the PSF file ../psf/modelParameter.info ...
element: writing instance parameter values to rawfile.

Opening the PSF file ../psf/element.info ...
outputParameter: writing output parameter values to rawfile.

Opening the PSF file ../psf/outputParameter.info ...
designParamVals: writing netlist parameters to rawfile.

Opening the PSFASCII file ../psf/designParamVals.info ...
primitives: writing primitives to rawfile.

Opening the PSFASCII file ../psf/primitives.info.primitives ...
subckts: writing subcircuits to rawfile.

Opening the PSFASCII file ../psf/subckts.info.subckts ...

Aggregate audit (9:11:37 PM, Wed May 3, 2023):
Time used: CPU = 28.8 s, elapsed = 29.6 s, util. = 97.1%.
Time spent in licensing: elapsed = 38.7 ms.
Peak memory used = 1.16 Gbytes.
Simulation started at: 9:11:07 PM, Wed May 3, 2023, ended at: 9:11:37 PM, Wed May 3, 2023, with elapsed time (wall clock): 29.6 s.
spectre completes with 0 errors, 1 warning, and 2 notices.


********* LOG ENDS **************
**                             **
