
Spectre (R) Circuit Simulator
Version 18.1.0.077 64bit -- 1 Aug 2018
Copyright (C) 1989-2018 Cadence Design Systems, Inc. All rights reserved worldwide. Cadence and Spectre are registered trademarks of Cadence Design Systems, Inc. All others are the property of their respective holders.

Includes RSA BSAFE(R) Cryptographic or Security Protocol Software from RSA Security, Inc.

User: ADS+u1922268   Host: overpass.soe.warwick.ac.uk   HostID: EB0A1404   PID: 4066
Memory  available: 14.1033 GB  physical: 134.6517 GB
Linux   : Red Hat Enterprise Linux Server release 7.9 (Maipo)
CPU Type: Intel(R) Xeon(R) Gold 5220 CPU @ 2.20GHz
        Socket: Processors [Frequency] (Hyperthreaded Processor)
        0:       0 [2324.2] ( 36 ),  1 [1222.2] ( 37 ),  2 [3483.8] ( 38 )
                 3 [2768.5] ( 39 ),  4 [2739.5] ( 40 ),  5 [3213.3] ( 41 )
                 6 [2076.9] ( 42 ),  7 [3419.5] ( 43 ),  8 [3535.3] ( 44 )
                 9 [3637.0] ( 45 ), 10 [1268.1] ( 46 ), 11 [1817.3] ( 47 )
                12 [1000.0] ( 48 ), 13 [1000.0] ( 49 ), 14 [1266.5] ( 50 )
                15 [1454.4] ( 51 ), 16 [3075.2] ( 52 ), 17 [2568.6] ( 53 )
        1:      18 [1115.7] ( 54 ), 19 [3429.6] ( 55 ), 20 [3415.3] ( 56 )
                21 [3676.2] ( 57 ), 22 [2842.1] ( 58 ), 23 [2820.0] ( 59 )
                24 [3171.0] ( 60 ), 25 [3371.0] ( 61 ), 26 [3589.5] ( 62 )
                27 [3120.3] ( 63 ), 28 [2610.1] ( 64 ), 29 [2884.1] ( 65 )
                30 [1486.0] ( 66 ), 31 [2550.6] ( 67 ), 32 [2936.0] ( 68 )
                33 [1495.8] ( 69 ), 34 [2587.8] ( 70 ), 35 [1551.3] ( 71 )
        
System load averages (1min, 5min, 15min) : 0.0 %, 0.0 %, 0.1 %
Hyperthreading is enabled


Simulating `input.scs' on overpass.soe.warwick.ac.uk at 2:11:20 PM, Sat May 6, 2023 (process id: 4066).
Current working directory: /home/ADS/u1922268/es3d8/assignment/libraries/simulation/devices/inverter_pulse_tb/maestro/results/maestro/Interactive.0/1/devices:inverter_pulse_tb:1/netlist
Environment variable:
    CMI_CONFIG=/opt/Coventor/CoventorMP1.3/MEMS+6.5/runtime/cadence/skill/cmiMEMSplus
Command line:
     \
        /eda/cadence/2018-19/RHELx86/SPECTRE_18.10.077/tools.lnx86/bin/spectre  \
        -64 input.scs +escchars +log ../psf/spectre.out -format psfxl  \
        -raw ../psf +lqtimeout 900 -maxw 5 -maxn 5 -ahdllibdir  \
        /home/ADS/u1922268/es3d8/assignment/libraries/simulation/devices/inverter_pulse_tb/maestro/results/maestro/Interactive.0/sharedData/CDS/ahdl/input.ahdlSimDB  \
        +logstatus

Loading /eda/cadence/2018-19/RHELx86/SPECTRE_18.10.077/tools.lnx86/cmi/lib/64bit/5.0/libinfineon_sh.so ...
Loading /eda/cadence/2018-19/RHELx86/SPECTRE_18.10.077/tools.lnx86/cmi/lib/64bit/5.0/libphilips_o_sh.so ...
Loading /eda/cadence/2018-19/RHELx86/SPECTRE_18.10.077/tools.lnx86/cmi/lib/64bit/5.0/libphilips_sh.so ...
Loading /eda/cadence/2018-19/RHELx86/SPECTRE_18.10.077/tools.lnx86/cmi/lib/64bit/5.0/libsparam_sh.so ...
Loading /eda/cadence/2018-19/RHELx86/SPECTRE_18.10.077/tools.lnx86/cmi/lib/64bit/5.0/libstmodels_sh.so ...
Loading /opt/Coventor/CoventorMP1.3/MEMS+6.5/lib//libMEMSplusCadence_5.0.so ...
Reading file:  /home/ADS/u1922268/es3d8/assignment/libraries/simulation/devices/inverter_pulse_tb/maestro/results/maestro/Interactive.0/1/devices:inverter_pulse_tb:1/netlist/input.scs
Reading file:  /eda/cadence/2018-19/RHELx86/SPECTRE_18.10.077/tools.lnx86/spectre/etc/configs/mapsubckt.cfg
Reading file:  /eda/cadence/2018-19/RHELx86/SPECTRE_18.10.077/tools.lnx86/spectre/etc/configs/spectre.cfg
Reading file:  /eda/designKits/gpdk045_v_6_0/models/spectre/gpdk045.scs
Reading file:  /eda/designKits/gpdk045_v_6_0/models/spectre/gpdk045_mos.scs
Reading file:  /eda/designKits/gpdk045_v_6_0/models/spectre/gpdk045_diode.scs
Reading file:  /eda/designKits/gpdk045_v_6_0/models/spectre/gpdk045_bipolar.scs
Reading file:  /eda/designKits/gpdk045_v_6_0/models/spectre/gpdk045_mimcap.scs
Reading file:  /eda/designKits/gpdk045_v_6_0/models/spectre/gpdk045_moscap.scs
Reading file:  /eda/designKits/gpdk045_v_6_0/models/spectre/gpdk045_resistor.scs
Reading file:  /eda/designKits/gpdk045_v_6_0/models/spectre/gpdk045_inductor.scs
Reading file:  /eda/designKits/gpdk045_v_6_0/models/spectre/gpdk045_soa.scs
Time for NDB Parsing: CPU = 3.08918 s, elapsed = 3.17154 s.
Time accumulated: CPU = 3.10878 s, elapsed = 3.17154 s.
Peak resident memory used = 768 Mbytes.

Reading link:  /eda/cadence/2018-19/RHELx86/SPECTRE_18.10.077/tools.lnx86/spectre/etc/ahdl/discipline.h
Reading file:  /eda/cadence/2018-19/RHELx86/SPECTRE_18.10.077/tools.lnx86/spectre/etc/ahdl/disciplines.vams
Reading link:  /eda/cadence/2018-19/RHELx86/SPECTRE_18.10.077/tools.lnx86/spectre/etc/ahdl/constants.h
Reading file:  /eda/cadence/2018-19/RHELx86/SPECTRE_18.10.077/tools.lnx86/spectre/etc/ahdl/constants.vams
Existing shared object for module bsource_2b273e is up to date.
Installed compiled interface for bsource_2b273e.
Time for Elaboration: CPU = 333.601 ms, elapsed = 334.388 ms.
Time accumulated: CPU = 3.44248 s, elapsed = 3.50603 s.
Peak resident memory used = 880 Mbytes.


Warning from spectre during hierarchy flattening.
    WARNING (SPECTRE-17101): The value 'psf' specified using the 'checklimitdest' option will no longer be supported in future releases.


Time for EDB Visiting: CPU = 970 us, elapsed = 972.033 us.
Time accumulated: CPU = 3.44355 s, elapsed = 3.5071 s.
Peak resident memory used = 881 Mbytes.


Global user options:
         psfversion = 1.1.0
            vabstol = 1e-06
            iabstol = 1e-12
               temp = 27
               gmin = 1e-12
             rforce = 1
           maxnotes = 5
           maxwarns = 5
             digits = 5
               cols = 80
             pivrel = 0.001
           sensfile = ../psf/sens.output
     checklimitdest = psf
               save = all
                pwr = all
             reltol = 0.001
               tnom = 27
             scalem = 1
              scale = 1

Scoped user options:

Circuit inventory:
              nodes 5
              bsim4 2     
     bsource_2b273e 2     
          capacitor 1     
            vsource 2     

Analysis and control statement inventory:
               info 7     
               tran 1     

Output statements:
             .probe 0     
           .measure 0     
               save 1     

Time for parsing: CPU = 8.604 ms, elapsed = 9.11713 ms.
Time accumulated: CPU = 3.45223 s, elapsed = 3.5163 s.
Peak resident memory used = 882 Mbytes.

~~~~~~~~~~~~~~~~~~~~~~
Pre-Simulation Summary
~~~~~~~~~~~~~~~~~~~~~~
~~~~~~~~~~~~~~~~~~~~~~

*************************************************
Transient Analysis `tran': time = (0 s -> 600 ns)
*************************************************
DC simulation time: CPU = 373 us, elapsed = 374.079 us.

Opening the PSFXL file ../psf/tran.tran.tran ...
Important parameter values:
    start = 0 s
    outputstart = 0 s
    stop = 600 ns
    step = 600 ps
    maxstep = 6 ns
    ic = all
    useprevic = no
    skipdc = no
    reltol = 100e-06
    abstol(V) = 1 uV
    abstol(I) = 1 pA
    temp = 27 C
    tnom = 27 C
    tempeffects = all
    errpreset = conservative
    method = gear2only
    lteratio = 10
    relref = alllocal
    cmin = 0 F
    gmin = 1 pS


Output and IC/nodeset summary:
                 save   2       (current)
                 save   7       (voltage)
                 others 8       

    tran: time = 15 ns        (2.5 %), step = 6 ns            (1 %)
    tran: time = 48 ns          (8 %), step = 4.5 ns       (750 m%)
    tran: time = 76.53 ns    (12.8 %), step = 6 ns            (1 %)
    tran: time = 108.8 ns    (18.1 %), step = 4.404 ns     (734 m%)
    tran: time = 138.8 ns    (23.1 %), step = 6 ns            (1 %)
    tran: time = 168.1 ns      (28 %), step = 6 ns            (1 %)
    tran: time = 198 ns        (33 %), step = 5.886 ns     (981 m%)
    tran: time = 228.9 ns    (38.2 %), step = 6 ns            (1 %)
    tran: time = 256.1 ns    (42.7 %), step = 3.054 ns     (509 m%)
    tran: time = 286.1 ns    (47.7 %), step = 6 ns            (1 %)
    tran: time = 316.9 ns    (52.8 %), step = 6 ns            (1 %)
    tran: time = 348 ns        (58 %), step = 3.536 ns     (589 m%)
    tran: time = 380.1 ns    (63.4 %), step = 6 ns            (1 %)
    tran: time = 405.5 ns    (67.6 %), step = 2.73 ns      (455 m%)
    tran: time = 440.9 ns    (73.5 %), step = 6 ns            (1 %)
    tran: time = 468.1 ns      (78 %), step = 6 ns            (1 %)
    tran: time = 498 ns        (83 %), step = 5.886 ns     (981 m%)
    tran: time = 528.9 ns    (88.2 %), step = 6 ns            (1 %)
    tran: time = 556.1 ns    (92.7 %), step = 3.054 ns     (509 m%)
    tran: time = 586.1 ns    (97.7 %), step = 6 ns            (1 %)
Number of accepted tran steps =             712

Maximum value achieved for any signal of each quantity: 
V: V(I1.PM0:int_d) = 1.1 V
I: I(V0:p) = 6.405 uA

~~~~~~~~~~~~~~~~~~~~~~~~~~~~~~~~~
Post-Transient Simulation Summary
~~~~~~~~~~~~~~~~~~~~~~~~~~~~~~~~~
   -   To further speed up simulation, consider
          add ++aps on command line
   -   Non-default settings that could significantly slow down simulation
          errpreset = conservative, default moderate
~~~~~~~~~~~~~~~~~~~~~~~~~~~~~~~~~


During simulation, the CPU load for active processors is :
        Spectre  3 (3.4 %)      20 (1.4 %)      26 (94.9 %)     39 (1.7 %)
                41 (1.7 %)      43 (1.2 %)      56 (2.0 %)      
        Other   
Initial condition solution time: CPU = 415 us, elapsed = 416.04 us.
Intrinsic tran analysis time:    CPU = 29.14 ms, elapsed = 29.4712 ms.
Total time required for tran analysis `tran': CPU = 30.999 ms, elapsed = 31.333 ms.
Time accumulated: CPU = 3.49711 s, elapsed = 3.56154 s.
Peak resident memory used = 885 Mbytes.

finalTimeOP: writing operating point information to rawfile.

Opening the PSF file ../psf/finalTimeOP.info ...
modelParameter: writing model parameter values to rawfile.

Opening the PSF file ../psf/modelParameter.info ...
element: writing instance parameter values to rawfile.

Opening the PSF file ../psf/element.info ...
outputParameter: writing output parameter values to rawfile.

Opening the PSF file ../psf/outputParameter.info ...
designParamVals: writing netlist parameters to rawfile.

Opening the PSFASCII file ../psf/designParamVals.info ...
primitives: writing primitives to rawfile.

Opening the PSFASCII file ../psf/primitives.info.primitives ...
subckts: writing subcircuits to rawfile.

Opening the PSFASCII file ../psf/subckts.info.subckts ...

Aggregate audit (2:11:24 PM, Sat May 6, 2023):
Time used: CPU = 3.53 s, elapsed = 3.6 s, util. = 98.2%.
Time spent in licensing: elapsed = 37.6 ms.
Peak memory used = 886 Mbytes.
Simulation started at: 2:11:20 PM, Sat May 6, 2023, ended at: 2:11:24 PM, Sat May 6, 2023, with elapsed time (wall clock): 3.6 s.
spectre completes with 0 errors, 1 warning, and 0 notices.


********* LOG ENDS **************
**                             **
