
Spectre (R) Circuit Simulator
Version 18.1.0.077 64bit -- 1 Aug 2018
Copyright (C) 1989-2018 Cadence Design Systems, Inc. All rights reserved worldwide. Cadence and Spectre are registered trademarks of Cadence Design Systems, Inc. All others are the property of their respective holders.

Includes RSA BSAFE(R) Cryptographic or Security Protocol Software from RSA Security, Inc.

User: ADS+u1922268   Host: overpass.soe.warwick.ac.uk   HostID: EB0A1404   PID: 35023
Memory  available: 14.5039 GB  physical: 134.6517 GB
Linux   : Red Hat Enterprise Linux Server release 7.9 (Maipo)
CPU Type: Intel(R) Xeon(R) Gold 5220 CPU @ 2.20GHz
        Socket: Processors [Frequency] (Hyperthreaded Processor)
        0:       0 [1252.5] ( 36 ),  1 [3603.6] ( 37 ),  2 [3591.2] ( 38 )
                 3 [3692.2] ( 39 ),  4 [1852.5] ( 40 ),  5 [3274.8] ( 41 )
                 6 [1497.9] ( 42 ),  7 [1866.1] ( 43 ),  8 [3125.7] ( 44 )
                 9 [3295.2] ( 45 ), 10 [2294.4] ( 46 ), 11 [2985.0] ( 47 )
                12 [2912.6] ( 48 ), 13 [2542.0] ( 49 ), 14 [2436.7] ( 50 )
                15 [2019.0] ( 51 ), 16 [1059.6] ( 52 ), 17 [1515.6] ( 53 )
        1:      18 [1000.2] ( 54 ), 19 [1000.0] ( 55 ), 20 [3337.5] ( 56 )
                21 [3385.0] ( 57 ), 22 [2756.4] ( 58 ), 23 [3772.5] ( 59 )
                24 [3495.8] ( 60 ), 25 [1474.0] ( 61 ), 26 [2057.5] ( 62 )
                27 [1789.8] ( 63 ), 28 [2912.7] ( 64 ), 29 [3421.5] ( 65 )
                30 [1000.2] ( 66 ), 31 [2711.2] ( 67 ), 32 [2985.1] ( 68 )
                33 [3616.4] ( 69 ), 34 [3483.6] ( 70 ), 35 [2771.9] ( 71 )
        
System load averages (1min, 5min, 15min) : 0.2 %, 0.2 %, 0.2 %
Hyperthreading is enabled


Simulating `input.scs' on overpass.soe.warwick.ac.uk at 9:15:23 PM, Wed May 3, 2023 (process id: 35023).
Current working directory: /home/ADS/u1922268/es3d8/assignment/libraries/simulation/devices/nand2_pulse_tb/maestro/results/maestro/Interactive.0/1/devices:nand2_pulse_tb:1/netlist
Environment variable:
    CMI_CONFIG=/opt/Coventor/CoventorMP1.3/MEMS+6.5/runtime/cadence/skill/cmiMEMSplus
Command line:
     \
        /eda/cadence/2018-19/RHELx86/SPECTRE_18.10.077/tools.lnx86/bin/spectre  \
        -64 input.scs +escchars +log ../psf/spectre.out -format psfxl  \
        -raw ../psf +lqtimeout 900 -maxw 5 -maxn 5 -ahdllibdir  \
        /home/ADS/u1922268/es3d8/assignment/libraries/simulation/devices/nand2_pulse_tb/maestro/results/maestro/Interactive.0/sharedData/CDS/ahdl/input.ahdlSimDB  \
        +logstatus

Loading /eda/cadence/2018-19/RHELx86/SPECTRE_18.10.077/tools.lnx86/cmi/lib/64bit/5.0/libinfineon_sh.so ...
Loading /eda/cadence/2018-19/RHELx86/SPECTRE_18.10.077/tools.lnx86/cmi/lib/64bit/5.0/libphilips_o_sh.so ...
Loading /eda/cadence/2018-19/RHELx86/SPECTRE_18.10.077/tools.lnx86/cmi/lib/64bit/5.0/libphilips_sh.so ...
Loading /eda/cadence/2018-19/RHELx86/SPECTRE_18.10.077/tools.lnx86/cmi/lib/64bit/5.0/libsparam_sh.so ...
Loading /eda/cadence/2018-19/RHELx86/SPECTRE_18.10.077/tools.lnx86/cmi/lib/64bit/5.0/libstmodels_sh.so ...
Loading /opt/Coventor/CoventorMP1.3/MEMS+6.5/lib//libMEMSplusCadence_5.0.so ...
Reading file:  /home/ADS/u1922268/es3d8/assignment/libraries/simulation/devices/nand2_pulse_tb/maestro/results/maestro/Interactive.0/1/devices:nand2_pulse_tb:1/netlist/input.scs
Reading file:  /eda/cadence/2018-19/RHELx86/SPECTRE_18.10.077/tools.lnx86/spectre/etc/configs/mapsubckt.cfg
Reading file:  /eda/cadence/2018-19/RHELx86/SPECTRE_18.10.077/tools.lnx86/spectre/etc/configs/spectre.cfg
Reading file:  /eda/designKits/gpdk045_v_6_0/models/spectre/gpdk045.scs
Reading file:  /eda/designKits/gpdk045_v_6_0/models/spectre/gpdk045_mos.scs
Reading file:  /eda/designKits/gpdk045_v_6_0/models/spectre/gpdk045_diode.scs
Reading file:  /eda/designKits/gpdk045_v_6_0/models/spectre/gpdk045_bipolar.scs
Reading file:  /eda/designKits/gpdk045_v_6_0/models/spectre/gpdk045_mimcap.scs
Reading file:  /eda/designKits/gpdk045_v_6_0/models/spectre/gpdk045_moscap.scs
Reading file:  /eda/designKits/gpdk045_v_6_0/models/spectre/gpdk045_resistor.scs
Reading file:  /eda/designKits/gpdk045_v_6_0/models/spectre/gpdk045_inductor.scs
Reading file:  /eda/designKits/gpdk045_v_6_0/models/spectre/gpdk045_soa.scs
Time for NDB Parsing: CPU = 3.10823 s, elapsed = 3.19068 s.
Time accumulated: CPU = 3.13019 s, elapsed = 3.19069 s.
Peak resident memory used = 768 Mbytes.

Reading link:  /eda/cadence/2018-19/RHELx86/SPECTRE_18.10.077/tools.lnx86/spectre/etc/ahdl/discipline.h
Reading file:  /eda/cadence/2018-19/RHELx86/SPECTRE_18.10.077/tools.lnx86/spectre/etc/ahdl/disciplines.vams
Reading link:  /eda/cadence/2018-19/RHELx86/SPECTRE_18.10.077/tools.lnx86/spectre/etc/ahdl/constants.h
Reading file:  /eda/cadence/2018-19/RHELx86/SPECTRE_18.10.077/tools.lnx86/spectre/etc/ahdl/constants.vams
Opening directory /home/ADS/u1922268/es3d8/assignment/libraries/simulation/devices/nand2_pulse_tb/maestro/results/maestro/Interactive.0/sharedData/CDS/ahdl/input.ahdlSimDB (775)
Created directory /home/ADS/u1922268/es3d8/assignment/libraries/simulation/devices/nand2_pulse_tb/maestro/results/maestro/Interactive.0/sharedData/CDS/ahdl/input.ahdlSimDB/bsource_2b273e.va.bsource_2b273e.ahdlcmi/ (775)
Created directory /home/ADS/u1922268/es3d8/assignment/libraries/simulation/devices/nand2_pulse_tb/maestro/results/maestro/Interactive.0/sharedData/CDS/ahdl/input.ahdlSimDB/bsource_2b273e.va.bsource_2b273e.ahdlcmi/Linux-64/ (775)
Compiling ahdlcmi module library for bsource_2b273e.
Finished compilation in 735 ms (elapsed) for bsource_2b273e.
Installed compiled interface for bsource_2b273e.
Time for Elaboration: CPU = 346.786 ms, elapsed = 1.08266 s.
Time accumulated: CPU = 3.47708 s, elapsed = 4.27346 s.
Peak resident memory used = 887 Mbytes.


Warning from spectre during hierarchy flattening.
    WARNING (SPECTRE-17101): The value 'psf' specified using the 'checklimitdest' option will no longer be supported in future releases.


Time for EDB Visiting: CPU = 1.639 ms, elapsed = 1.64294 ms.
Time accumulated: CPU = 3.47882 s, elapsed = 4.27521 s.
Peak resident memory used = 888 Mbytes.


Global user options:
         psfversion = 1.1.0
            vabstol = 1e-06
            iabstol = 1e-12
               temp = 27
               gmin = 1e-12
             rforce = 1
           maxnotes = 5
           maxwarns = 5
             digits = 5
               cols = 80
             pivrel = 0.001
           sensfile = ../psf/sens.output
     checklimitdest = psf
               save = all
                pwr = all
             reltol = 0.001
               tnom = 27
             scalem = 1
              scale = 1

Scoped user options:

Circuit inventory:
              nodes 9
              bsim4 4     
     bsource_2b273e 4     
          capacitor 1     
            vsource 3     

Analysis and control statement inventory:
               info 7     
               tran 1     

Output statements:
             .probe 0     
           .measure 0     
               save 1     

Time for parsing: CPU = 8.496 ms, elapsed = 8.90398 ms.
Time accumulated: CPU = 3.48742 s, elapsed = 4.28421 s.
Peak resident memory used = 889 Mbytes.

~~~~~~~~~~~~~~~~~~~~~~
Pre-Simulation Summary
~~~~~~~~~~~~~~~~~~~~~~
~~~~~~~~~~~~~~~~~~~~~~

*************************************************
Transient Analysis `tran': time = (0 s -> 600 ns)
*************************************************

Notice from spectre during IC analysis, during transient analysis `tran'.
    GminDC = 1 pS is large enough to noticeably affect the DC solution.
        dV(I5.NM1:int_d) = 30.5235 mV
        Use the `gmin_check' option to eliminate or expand this report.

DC simulation time: CPU = 533 us, elapsed = 535.011 us.

Opening the PSFXL file ../psf/tran.tran.tran ...
Important parameter values:
    start = 0 s
    outputstart = 0 s
    stop = 600 ns
    step = 600 ps
    maxstep = 6 ns
    ic = all
    useprevic = no
    skipdc = no
    reltol = 100e-06
    abstol(V) = 1 uV
    abstol(I) = 1 pA
    temp = 27 C
    tnom = 27 C
    tempeffects = all
    errpreset = conservative
    method = gear2only
    lteratio = 10
    relref = alllocal
    cmin = 0 F
    gmin = 1 pS


Output and IC/nodeset summary:
                 save   3       (current)
                 save   12      (voltage)
                 others 14      

    tran: time = 15 ns        (2.5 %), step = 6 ns            (1 %)
    tran: time = 48 ns          (8 %), step = 4.5 ns       (750 m%)
    tran: time = 77.3 ns     (12.9 %), step = 4.223 ns     (704 m%)
    tran: time = 105.9 ns    (17.6 %), step = 2.126 ns     (354 m%)
    tran: time = 136.7 ns    (22.8 %), step = 6 ns            (1 %)
    tran: time = 167.6 ns    (27.9 %), step = 6 ns            (1 %)
    tran: time = 198 ns        (33 %), step = 3.186 ns     (531 m%)
    tran: time = 227.3 ns    (37.9 %), step = 6 ns            (1 %)
    tran: time = 255.3 ns    (42.6 %), step = 822.2 ps     (137 m%)
    tran: time = 289.9 ns    (48.3 %), step = 6 ns            (1 %)
    tran: time = 317.7 ns    (52.9 %), step = 3.842 ns     (640 m%)
    tran: time = 348 ns        (58 %), step = 3.157 ns     (526 m%)
    tran: time = 379.6 ns    (63.3 %), step = 6 ns            (1 %)
    tran: time = 405.7 ns    (67.6 %), step = 2.279 ns     (380 m%)
    tran: time = 439.3 ns    (73.2 %), step = 6 ns            (1 %)
    tran: time = 467.2 ns    (77.9 %), step = 2.679 ns     (446 m%)
    tran: time = 498 ns        (83 %), step = 4.028 ns     (671 m%)
    tran: time = 529.7 ns    (88.3 %), step = 6 ns            (1 %)
    tran: time = 555.8 ns    (92.6 %), step = 2.902 ns     (484 m%)
    tran: time = 585.6 ns    (97.6 %), step = 6 ns            (1 %)
Number of accepted tran steps =             799

Maximum value achieved for any signal of each quantity: 
V: V(I5.NM1:int_s) = 1.1 V
I: I(V0:p) = 6.891 uA

~~~~~~~~~~~~~~~~~~~~~~~~~~~~~~~~~
Post-Transient Simulation Summary
~~~~~~~~~~~~~~~~~~~~~~~~~~~~~~~~~
   -   To further speed up simulation, consider
          add ++aps on command line
   -   Non-default settings that could significantly slow down simulation
          errpreset = conservative, default moderate
~~~~~~~~~~~~~~~~~~~~~~~~~~~~~~~~~


During simulation, the CPU load for active processors is :
        Spectre  0 (1.6 %)       3 (2.6 %)       4 (1.2 %)       8 (1.4 %)
                11 (2.6 %)      20 (1.4 %)      22 (1.4 %)      26 (1.6 %)
                31 (10.0 %)     32 (80.4 %)     37 (3.1 %)      38 (1.4 %)
                39 (2.8 %)      40 (1.9 %)      41 (2.6 %)      42 (1.6 %)
                43 (1.4 %)      44 (1.4 %)      47 (1.4 %)      55 (3.7 %)
                56 (5.6 %)      57 (1.4 %)      58 (1.4 %)      59 (1.2 %)
                62 (1.4 %)      65 (1.4 %)      67 (1.2 %)      
        Other   
Initial condition solution time: CPU = 577 us, elapsed = 579.119 us.
Intrinsic tran analysis time:    CPU = 44.73 ms, elapsed = 44.9798 ms.
Total time required for tran analysis `tran': CPU = 46.583 ms, elapsed = 46.834 ms.
Time accumulated: CPU = 3.54859 s, elapsed = 4.34567 s.
Peak resident memory used = 891 Mbytes.

finalTimeOP: writing operating point information to rawfile.

Opening the PSF file ../psf/finalTimeOP.info ...
modelParameter: writing model parameter values to rawfile.

Opening the PSF file ../psf/modelParameter.info ...
element: writing instance parameter values to rawfile.

Opening the PSF file ../psf/element.info ...
outputParameter: writing output parameter values to rawfile.

Opening the PSF file ../psf/outputParameter.info ...
designParamVals: writing netlist parameters to rawfile.

Opening the PSFASCII file ../psf/designParamVals.info ...
primitives: writing primitives to rawfile.

Opening the PSFASCII file ../psf/primitives.info.primitives ...
subckts: writing subcircuits to rawfile.

Opening the PSFASCII file ../psf/subckts.info.subckts ...

Aggregate audit (9:15:28 PM, Wed May 3, 2023):
Time used: CPU = 3.58 s, elapsed = 4.38 s, util. = 81.8%.
Time spent in licensing: elapsed = 39.2 ms.
Peak memory used = 892 Mbytes.
Simulation started at: 9:15:23 PM, Wed May 3, 2023, ended at: 9:15:28 PM, Wed May 3, 2023, with elapsed time (wall clock): 4.38 s.
spectre completes with 0 errors, 1 warning, and 1 notice.


********* LOG ENDS **************
**                             **
