
Spectre (R) Circuit Simulator
Version 18.1.0.077 64bit -- 1 Aug 2018
Copyright (C) 1989-2018 Cadence Design Systems, Inc. All rights reserved worldwide. Cadence and Spectre are registered trademarks of Cadence Design Systems, Inc. All others are the property of their respective holders.

Includes RSA BSAFE(R) Cryptographic or Security Protocol Software from RSA Security, Inc.

User: ADS+u1922268   Host: overpass.soe.warwick.ac.uk   HostID: EB0A1404   PID: 9551
Memory  available: 13.4254 GB  physical: 134.6517 GB
Linux   : Red Hat Enterprise Linux Server release 7.9 (Maipo)
CPU Type: Intel(R) Xeon(R) Gold 5220 CPU @ 2.20GHz
        Socket: Processors [Frequency] (Hyperthreaded Processor)
        0:       0 [1841.9] ( 36 ),  1 [1184.7] ( 37 ),  2 [3444.6] ( 38 )
                 3 [3369.2] ( 39 ),  4 [2283.1] ( 40 ),  5 [3371.3] ( 41 )
                 6 [1054.2] ( 42 ),  7 [2633.0] ( 43 ),  8 [3106.9] ( 44 )
                 9 [2631.2] ( 45 ), 10 [1666.0] ( 46 ), 11 [2845.6] ( 47 )
                12 [2419.8] ( 48 ), 13 [3478.3] ( 49 ), 14 [3617.0] ( 50 )
                15 [2575.4] ( 51 ), 16 [2702.1] ( 52 ), 17 [3255.3] ( 53 )
        1:      18 [3335.3] ( 54 ), 19 [2176.4] ( 55 ), 20 [3532.3] ( 56 )
                21 [3625.9] ( 57 ), 22 [2653.6] ( 58 ), 23 [3325.2] ( 59 )
                24 [1769.1] ( 60 ), 25 [2347.0] ( 61 ), 26 [1296.4] ( 62 )
                27 [1466.3] ( 63 ), 28 [2264.7] ( 64 ), 29 [3319.6] ( 65 )
                30 [2200.5] ( 66 ), 31 [3602.3] ( 67 ), 32 [2514.7] ( 68 )
                33 [3501.1] ( 69 ), 34 [3192.7] ( 70 ), 35 [1009.9] ( 71 )
        
System load averages (1min, 5min, 15min) : 0.3 %, 0.2 %, 0.1 %
Hyperthreading is enabled


Simulating `input.scs' on overpass.soe.warwick.ac.uk at 2:19:57 PM, Sat May 6, 2023 (process id: 9551).
Current working directory: /home/ADS/u1922268/es3d8/assignment/libraries/simulation/devices/nor3_pulse_tb/maestro/results/maestro/Interactive.0/1/devices:nand3_pulse_tb:1/netlist
Environment variable:
    CMI_CONFIG=/opt/Coventor/CoventorMP1.3/MEMS+6.5/runtime/cadence/skill/cmiMEMSplus
Command line:
     \
        /eda/cadence/2018-19/RHELx86/SPECTRE_18.10.077/tools.lnx86/bin/spectre  \
        -64 input.scs +escchars +log ../psf/spectre.out -format psfxl  \
        -raw ../psf +lqtimeout 900 -maxw 5 -maxn 5 -ahdllibdir  \
        /home/ADS/u1922268/es3d8/assignment/libraries/simulation/devices/nor3_pulse_tb/maestro/results/maestro/Interactive.0/sharedData/CDS/ahdl/input.ahdlSimDB  \
        +logstatus

Loading /eda/cadence/2018-19/RHELx86/SPECTRE_18.10.077/tools.lnx86/cmi/lib/64bit/5.0/libinfineon_sh.so ...
Loading /eda/cadence/2018-19/RHELx86/SPECTRE_18.10.077/tools.lnx86/cmi/lib/64bit/5.0/libphilips_o_sh.so ...
Loading /eda/cadence/2018-19/RHELx86/SPECTRE_18.10.077/tools.lnx86/cmi/lib/64bit/5.0/libphilips_sh.so ...
Loading /eda/cadence/2018-19/RHELx86/SPECTRE_18.10.077/tools.lnx86/cmi/lib/64bit/5.0/libsparam_sh.so ...
Loading /eda/cadence/2018-19/RHELx86/SPECTRE_18.10.077/tools.lnx86/cmi/lib/64bit/5.0/libstmodels_sh.so ...
Loading /opt/Coventor/CoventorMP1.3/MEMS+6.5/lib//libMEMSplusCadence_5.0.so ...
Reading file:  /home/ADS/u1922268/es3d8/assignment/libraries/simulation/devices/nor3_pulse_tb/maestro/results/maestro/Interactive.0/1/devices:nand3_pulse_tb:1/netlist/input.scs
Reading file:  /eda/cadence/2018-19/RHELx86/SPECTRE_18.10.077/tools.lnx86/spectre/etc/configs/mapsubckt.cfg
Reading file:  /eda/cadence/2018-19/RHELx86/SPECTRE_18.10.077/tools.lnx86/spectre/etc/configs/spectre.cfg
Reading file:  /eda/designKits/gpdk045_v_6_0/models/spectre/gpdk045.scs
Reading file:  /eda/designKits/gpdk045_v_6_0/models/spectre/gpdk045_mos.scs
Reading file:  /eda/designKits/gpdk045_v_6_0/models/spectre/gpdk045_diode.scs
Reading file:  /eda/designKits/gpdk045_v_6_0/models/spectre/gpdk045_bipolar.scs
Reading file:  /eda/designKits/gpdk045_v_6_0/models/spectre/gpdk045_mimcap.scs
Reading file:  /eda/designKits/gpdk045_v_6_0/models/spectre/gpdk045_moscap.scs
Reading file:  /eda/designKits/gpdk045_v_6_0/models/spectre/gpdk045_resistor.scs
Reading file:  /eda/designKits/gpdk045_v_6_0/models/spectre/gpdk045_inductor.scs
Reading file:  /eda/designKits/gpdk045_v_6_0/models/spectre/gpdk045_soa.scs
Time for NDB Parsing: CPU = 3.12479 s, elapsed = 3.20608 s.
Time accumulated: CPU = 3.14381 s, elapsed = 3.20609 s.
Peak resident memory used = 768 Mbytes.

Reading link:  /eda/cadence/2018-19/RHELx86/SPECTRE_18.10.077/tools.lnx86/spectre/etc/ahdl/discipline.h
Reading file:  /eda/cadence/2018-19/RHELx86/SPECTRE_18.10.077/tools.lnx86/spectre/etc/ahdl/disciplines.vams
Reading link:  /eda/cadence/2018-19/RHELx86/SPECTRE_18.10.077/tools.lnx86/spectre/etc/ahdl/constants.h
Reading file:  /eda/cadence/2018-19/RHELx86/SPECTRE_18.10.077/tools.lnx86/spectre/etc/ahdl/constants.vams
Existing shared object for module bsource_2b273e is up to date.
Installed compiled interface for bsource_2b273e.
Time for Elaboration: CPU = 320.379 ms, elapsed = 321.136 ms.
Time accumulated: CPU = 3.4643 s, elapsed = 3.52733 s.
Peak resident memory used = 880 Mbytes.


Warning from spectre during hierarchy flattening.
    WARNING (SPECTRE-17101): The value 'psf' specified using the 'checklimitdest' option will no longer be supported in future releases.


Time for EDB Visiting: CPU = 1.242 ms, elapsed = 1.24598 ms.
Time accumulated: CPU = 3.46565 s, elapsed = 3.52869 s.
Peak resident memory used = 881 Mbytes.


Global user options:
         psfversion = 1.1.0
            vabstol = 1e-06
            iabstol = 1e-12
               temp = 27
               gmin = 1e-12
             rforce = 1
           maxnotes = 5
           maxwarns = 5
             digits = 5
               cols = 80
             pivrel = 0.001
           sensfile = ../psf/sens.output
     checklimitdest = psf
               save = all
                pwr = all
             reltol = 0.001
               tnom = 27
             scalem = 1
              scale = 1

Scoped user options:

Circuit inventory:
              nodes 13
              bsim4 6     
     bsource_2b273e 6     
          capacitor 1     
            vsource 4     

Analysis and control statement inventory:
               info 7     
               tran 1     

Output statements:
             .probe 0     
           .measure 0     
               save 1     

Time for parsing: CPU = 8.506 ms, elapsed = 8.79979 ms.
Time accumulated: CPU = 3.47424 s, elapsed = 3.53758 s.
Peak resident memory used = 882 Mbytes.

~~~~~~~~~~~~~~~~~~~~~~
Pre-Simulation Summary
~~~~~~~~~~~~~~~~~~~~~~
~~~~~~~~~~~~~~~~~~~~~~

*************************************************
Transient Analysis `tran': time = (0 s -> 700 ns)
*************************************************
DC simulation time: CPU = 563 us, elapsed = 565.052 us.

Opening the PSFXL file ../psf/tran.tran.tran ...
Important parameter values:
    start = 0 s
    outputstart = 0 s
    stop = 700 ns
    step = 700 ps
    maxstep = 7 ns
    ic = all
    useprevic = no
    skipdc = no
    reltol = 100e-06
    abstol(V) = 1 uV
    abstol(I) = 1 pA
    temp = 27 C
    tnom = 27 C
    tempeffects = all
    errpreset = conservative
    method = gear2only
    lteratio = 10
    relref = alllocal
    cmin = 0 F
    gmin = 1 pS


Output and IC/nodeset summary:
                 save   4       (current)
                 save   29      (voltage)
                 others 20      

    tran: time = 17.5 ns      (2.5 %), step = 7 ns            (1 %)
    tran: time = 52.61 ns    (7.52 %), step = 573 ps      (81.9 m%)
    tran: time = 92.23 ns    (13.2 %), step = 5.772 ns     (825 m%)
    tran: time = 123.1 ns    (17.6 %), step = 2.232 ns     (319 m%)
    tran: time = 159.7 ns    (22.8 %), step = 4.826 ns     (689 m%)
    tran: time = 192.8 ns    (27.5 %), step = 5.17 ns      (739 m%)
    tran: time = 232 ns      (33.1 %), step = 7 ns            (1 %)
    tran: time = 266.4 ns    (38.1 %), step = 7 ns            (1 %)
    tran: time = 298 ns      (42.6 %), step = 5.306 ns     (758 m%)
    tran: time = 338.5 ns    (48.4 %), step = 7 ns            (1 %)
    tran: time = 369.8 ns    (52.8 %), step = 3.39 ns      (484 m%)
    tran: time = 403.4 ns    (57.6 %), step = 1.705 ns     (244 m%)
    tran: time = 442.3 ns    (63.2 %), step = 5.655 ns     (808 m%)
    tran: time = 476.5 ns    (68.1 %), step = 4.491 ns     (642 m%)
    tran: time = 508 ns      (72.6 %), step = 2.271 ns     (324 m%)
    tran: time = 543.7 ns    (77.7 %), step = 4.257 ns     (608 m%)
    tran: time = 580.7 ns      (83 %), step = 7 ns            (1 %)
    tran: time = 613.4 ns    (87.6 %), step = 1.681 ns     (240 m%)
    tran: time = 648 ns      (92.6 %), step = 5.265 ns     (752 m%)
    tran: time = 687.2 ns    (98.2 %), step = 7 ns            (1 %)
Number of accepted tran steps =             968

Maximum value achieved for any signal of each quantity: 
V: V(I8.PM0:int_d) = 1.154 V
I: I(V0:p) = 7.304 uA

~~~~~~~~~~~~~~~~~~~~~~~~~~~~~~~~~
Post-Transient Simulation Summary
~~~~~~~~~~~~~~~~~~~~~~~~~~~~~~~~~
   -   To further speed up simulation, consider
          add ++aps on command line
   -   Non-default settings that could significantly slow down simulation
          errpreset = conservative, default moderate
~~~~~~~~~~~~~~~~~~~~~~~~~~~~~~~~~


During simulation, the CPU load for active processors is :
        Spectre  2 (1.1 %)       5 (1.7 %)       6 (2.0 %)       8 (1.1 %)
                 9 (2.5 %)      38 (1.4 %)      39 (96.9 %)     41 (1.1 %)
        Other   
Initial condition solution time: CPU = 606 us, elapsed = 607.014 us.
Intrinsic tran analysis time:    CPU = 75.386 ms, elapsed = 75.6881 ms.
Total time required for tran analysis `tran': CPU = 77.471 ms, elapsed = 77.775 ms.
Time accumulated: CPU = 3.56882 s, elapsed = 3.6325 s.
Peak resident memory used = 886 Mbytes.

finalTimeOP: writing operating point information to rawfile.

Opening the PSF file ../psf/finalTimeOP.info ...
modelParameter: writing model parameter values to rawfile.

Opening the PSF file ../psf/modelParameter.info ...
element: writing instance parameter values to rawfile.

Opening the PSF file ../psf/element.info ...
outputParameter: writing output parameter values to rawfile.

Opening the PSF file ../psf/outputParameter.info ...
designParamVals: writing netlist parameters to rawfile.

Opening the PSFASCII file ../psf/designParamVals.info ...
primitives: writing primitives to rawfile.

Opening the PSFASCII file ../psf/primitives.info.primitives ...
subckts: writing subcircuits to rawfile.

Opening the PSFASCII file ../psf/subckts.info.subckts ...

Aggregate audit (2:20:01 PM, Sat May 6, 2023):
Time used: CPU = 3.61 s, elapsed = 3.67 s, util. = 98.2%.
Time spent in licensing: elapsed = 37.4 ms.
Peak memory used = 886 Mbytes.
Simulation started at: 2:19:57 PM, Sat May 6, 2023, ended at: 2:20:01 PM, Sat May 6, 2023, with elapsed time (wall clock): 3.67 s.
spectre completes with 0 errors, 1 warning, and 0 notices.


********* LOG ENDS **************
**                             **
