
Spectre (R) Circuit Simulator
Version 18.1.0.077 64bit -- 1 Aug 2018
Copyright (C) 1989-2018 Cadence Design Systems, Inc. All rights reserved worldwide. Cadence and Spectre are registered trademarks of Cadence Design Systems, Inc. All others are the property of their respective holders.

Includes RSA BSAFE(R) Cryptographic or Security Protocol Software from RSA Security, Inc.

User: ADS+u1922268   Host: overpass.soe.warwick.ac.uk   HostID: EB0A1404   PID: 36511
Memory  available: 14.5006 GB  physical: 134.6517 GB
Linux   : Red Hat Enterprise Linux Server release 7.9 (Maipo)
CPU Type: Intel(R) Xeon(R) Gold 5220 CPU @ 2.20GHz
        Socket: Processors [Frequency] (Hyperthreaded Processor)
        0:       0 [1539.9] ( 36 ),  1 [3130.5] ( 37 ),  2 [3717.6] ( 38 )
                 3 [3706.7] ( 39 ),  4 [2252.4] ( 40 ),  5 [3106.4] ( 41 )
                 6 [2675.5] ( 42 ),  7 [2748.8] ( 43 ),  8 [1411.4] ( 44 )
                 9 [3120.3] ( 45 ), 10 [3535.9] ( 46 ), 11 [1644.5] ( 47 )
                12 [2589.5] ( 48 ), 13 [2652.9] ( 49 ), 14 [1138.4] ( 50 )
                15 [2775.8] ( 51 ), 16 [1782.9] ( 52 ), 17 [1791.8] ( 53 )
        1:      18 [2706.0] ( 54 ), 19 [1389.1] ( 55 ), 20 [2778.2] ( 56 )
                21 [3315.6] ( 57 ), 22 [3031.0] ( 58 ), 23 [3519.1] ( 59 )
                24 [1738.2] ( 60 ), 25 [3219.2] ( 61 ), 26 [3539.6] ( 62 )
                27 [3105.0] ( 63 ), 28 [3179.7] ( 64 ), 29 [2408.8] ( 65 )
                30 [1782.3] ( 66 ), 31 [1616.2] ( 67 ), 32 [2265.1] ( 68 )
                33 [3582.2] ( 69 ), 34 [3507.3] ( 70 ), 35 [1824.0] ( 71 )
        
System load averages (1min, 5min, 15min) : 0.1 %, 0.2 %, 0.1 %
Hyperthreading is enabled


Simulating `input.scs' on overpass.soe.warwick.ac.uk at 9:17:02 PM, Wed May 3, 2023 (process id: 36511).
Current working directory: /home/ADS/u1922268/es3d8/assignment/libraries/simulation/devices/nand3_pulse_tb/maestro/results/maestro/Interactive.0/1/devices:nand3_pulse_tb:1/netlist
Environment variable:
    CMI_CONFIG=/opt/Coventor/CoventorMP1.3/MEMS+6.5/runtime/cadence/skill/cmiMEMSplus
Command line:
     \
        /eda/cadence/2018-19/RHELx86/SPECTRE_18.10.077/tools.lnx86/bin/spectre  \
        -64 input.scs +escchars +log ../psf/spectre.out -format psfxl  \
        -raw ../psf +lqtimeout 900 -maxw 5 -maxn 5 -ahdllibdir  \
        /home/ADS/u1922268/es3d8/assignment/libraries/simulation/devices/nand3_pulse_tb/maestro/results/maestro/Interactive.0/sharedData/CDS/ahdl/input.ahdlSimDB  \
        +logstatus

Loading /eda/cadence/2018-19/RHELx86/SPECTRE_18.10.077/tools.lnx86/cmi/lib/64bit/5.0/libinfineon_sh.so ...
Loading /eda/cadence/2018-19/RHELx86/SPECTRE_18.10.077/tools.lnx86/cmi/lib/64bit/5.0/libphilips_o_sh.so ...
Loading /eda/cadence/2018-19/RHELx86/SPECTRE_18.10.077/tools.lnx86/cmi/lib/64bit/5.0/libphilips_sh.so ...
Loading /eda/cadence/2018-19/RHELx86/SPECTRE_18.10.077/tools.lnx86/cmi/lib/64bit/5.0/libsparam_sh.so ...
Loading /eda/cadence/2018-19/RHELx86/SPECTRE_18.10.077/tools.lnx86/cmi/lib/64bit/5.0/libstmodels_sh.so ...
Loading /opt/Coventor/CoventorMP1.3/MEMS+6.5/lib//libMEMSplusCadence_5.0.so ...
Reading file:  /home/ADS/u1922268/es3d8/assignment/libraries/simulation/devices/nand3_pulse_tb/maestro/results/maestro/Interactive.0/1/devices:nand3_pulse_tb:1/netlist/input.scs
Reading file:  /eda/cadence/2018-19/RHELx86/SPECTRE_18.10.077/tools.lnx86/spectre/etc/configs/mapsubckt.cfg
Reading file:  /eda/cadence/2018-19/RHELx86/SPECTRE_18.10.077/tools.lnx86/spectre/etc/configs/spectre.cfg
Reading file:  /eda/designKits/gpdk045_v_6_0/models/spectre/gpdk045.scs
Reading file:  /eda/designKits/gpdk045_v_6_0/models/spectre/gpdk045_mos.scs
Reading file:  /eda/designKits/gpdk045_v_6_0/models/spectre/gpdk045_diode.scs
Reading file:  /eda/designKits/gpdk045_v_6_0/models/spectre/gpdk045_bipolar.scs
Reading file:  /eda/designKits/gpdk045_v_6_0/models/spectre/gpdk045_mimcap.scs
Reading file:  /eda/designKits/gpdk045_v_6_0/models/spectre/gpdk045_moscap.scs
Reading file:  /eda/designKits/gpdk045_v_6_0/models/spectre/gpdk045_resistor.scs
Reading file:  /eda/designKits/gpdk045_v_6_0/models/spectre/gpdk045_inductor.scs
Reading file:  /eda/designKits/gpdk045_v_6_0/models/spectre/gpdk045_soa.scs
Time for NDB Parsing: CPU = 3.13848 s, elapsed = 3.21904 s.
Time accumulated: CPU = 3.15987 s, elapsed = 3.21905 s.
Peak resident memory used = 768 Mbytes.

Reading link:  /eda/cadence/2018-19/RHELx86/SPECTRE_18.10.077/tools.lnx86/spectre/etc/ahdl/discipline.h
Reading file:  /eda/cadence/2018-19/RHELx86/SPECTRE_18.10.077/tools.lnx86/spectre/etc/ahdl/disciplines.vams
Reading link:  /eda/cadence/2018-19/RHELx86/SPECTRE_18.10.077/tools.lnx86/spectre/etc/ahdl/constants.h
Reading file:  /eda/cadence/2018-19/RHELx86/SPECTRE_18.10.077/tools.lnx86/spectre/etc/ahdl/constants.vams
Opening directory /home/ADS/u1922268/es3d8/assignment/libraries/simulation/devices/nand3_pulse_tb/maestro/results/maestro/Interactive.0/sharedData/CDS/ahdl/input.ahdlSimDB (775)
Created directory /home/ADS/u1922268/es3d8/assignment/libraries/simulation/devices/nand3_pulse_tb/maestro/results/maestro/Interactive.0/sharedData/CDS/ahdl/input.ahdlSimDB/bsource_2b273e.va.bsource_2b273e.ahdlcmi/ (775)
Created directory /home/ADS/u1922268/es3d8/assignment/libraries/simulation/devices/nand3_pulse_tb/maestro/results/maestro/Interactive.0/sharedData/CDS/ahdl/input.ahdlSimDB/bsource_2b273e.va.bsource_2b273e.ahdlcmi/Linux-64/ (775)
Compiling ahdlcmi module library for bsource_2b273e.
Finished compilation in 742 ms (elapsed) for bsource_2b273e.
Installed compiled interface for bsource_2b273e.
Time for Elaboration: CPU = 347.815 ms, elapsed = 1.09098 s.
Time accumulated: CPU = 3.50778 s, elapsed = 4.31012 s.
Peak resident memory used = 887 Mbytes.


Warning from spectre during hierarchy flattening.
    WARNING (SPECTRE-17101): The value 'psf' specified using the 'checklimitdest' option will no longer be supported in future releases.


Time for EDB Visiting: CPU = 1.78 ms, elapsed = 1.78385 ms.
Time accumulated: CPU = 3.50968 s, elapsed = 4.31203 s.
Peak resident memory used = 888 Mbytes.


Global user options:
         psfversion = 1.1.0
            vabstol = 1e-06
            iabstol = 1e-12
               temp = 27
               gmin = 1e-12
             rforce = 1
           maxnotes = 5
           maxwarns = 5
             digits = 5
               cols = 80
             pivrel = 0.001
           sensfile = ../psf/sens.output
     checklimitdest = psf
               save = all
                pwr = all
             reltol = 0.001
               tnom = 27
             scalem = 1
              scale = 1

Scoped user options:

Circuit inventory:
              nodes 13
              bsim4 6     
     bsource_2b273e 6     
          capacitor 1     
            vsource 4     

Analysis and control statement inventory:
               info 7     
               tran 1     

Output statements:
             .probe 0     
           .measure 0     
               save 1     

Time for parsing: CPU = 8.463 ms, elapsed = 8.89015 ms.
Time accumulated: CPU = 3.51824 s, elapsed = 4.32101 s.
Peak resident memory used = 889 Mbytes.

~~~~~~~~~~~~~~~~~~~~~~
Pre-Simulation Summary
~~~~~~~~~~~~~~~~~~~~~~
~~~~~~~~~~~~~~~~~~~~~~

*************************************************
Transient Analysis `tran': time = (0 s -> 700 ns)
*************************************************

Notice from spectre during IC analysis, during transient analysis `tran'.
    GminDC = 1 pS is large enough to noticeably affect the DC solution.
        dV(I7.NM2:int_s) = 109.023 mV
        Use the `gmin_check' option to eliminate or expand this report.

DC simulation time: CPU = 582 us, elapsed = 582.933 us.

Opening the PSFXL file ../psf/tran.tran.tran ...
Important parameter values:
    start = 0 s
    outputstart = 0 s
    stop = 700 ns
    step = 700 ps
    maxstep = 7 ns
    ic = all
    useprevic = no
    skipdc = no
    reltol = 100e-06
    abstol(V) = 1 uV
    abstol(I) = 1 pA
    temp = 27 C
    tnom = 27 C
    tempeffects = all
    errpreset = conservative
    method = gear2only
    lteratio = 10
    relref = alllocal
    cmin = 0 F
    gmin = 1 pS


Output and IC/nodeset summary:
                 save   4       (current)
                 save   29      (voltage)
                 others 20      

    tran: time = 17.5 ns      (2.5 %), step = 7 ns            (1 %)
    tran: time = 52.91 ns    (7.56 %), step = 540.4 ps    (77.2 m%)
    tran: time = 88.35 ns    (12.6 %), step = 5.992 ns     (856 m%)
    tran: time = 127 ns      (18.1 %), step = 7 ns            (1 %)
    tran: time = 158.8 ns    (22.7 %), step = 4.342 ns     (620 m%)
    tran: time = 198 ns      (28.3 %), step = 5.614 ns     (802 m%)
    tran: time = 233.8 ns    (33.4 %), step = 7 ns            (1 %)
    tran: time = 262.9 ns    (37.6 %), step = 2.016 ns     (288 m%)
    tran: time = 298 ns      (42.6 %), step = 5.391 ns     (770 m%)
    tran: time = 338.2 ns    (48.3 %), step = 7 ns            (1 %)
    tran: time = 368.1 ns    (52.6 %), step = 2.678 ns     (383 m%)
    tran: time = 403.1 ns    (57.6 %), step = 614.2 ps    (87.7 m%)
    tran: time = 442.2 ns    (63.2 %), step = 7 ns            (1 %)
    tran: time = 476.4 ns    (68.1 %), step = 4.275 ns     (611 m%)
    tran: time = 508 ns      (72.6 %), step = 2.933 ns     (419 m%)
    tran: time = 544 ns      (77.7 %), step = 3.999 ns     (571 m%)
    tran: time = 579.7 ns    (82.8 %), step = 7 ns            (1 %)
    tran: time = 614.9 ns    (87.8 %), step = 2.432 ns     (347 m%)
    tran: time = 648 ns      (92.6 %), step = 3.631 ns     (519 m%)
    tran: time = 686 ns        (98 %), step = 5.648 ns     (807 m%)
Number of accepted tran steps =             899

Maximum value achieved for any signal of each quantity: 
V: V(I7.PM2:int_d) = 1.102 V
I: I(V0:p) = 6.257 uA

~~~~~~~~~~~~~~~~~~~~~~~~~~~~~~~~~
Post-Transient Simulation Summary
~~~~~~~~~~~~~~~~~~~~~~~~~~~~~~~~~
   -   To further speed up simulation, consider
          add ++aps on command line
   -   Non-default settings that could significantly slow down simulation
          errpreset = conservative, default moderate
~~~~~~~~~~~~~~~~~~~~~~~~~~~~~~~~~


During simulation, the CPU load for active processors is :
        Spectre  3 (2.1 %)       8 (1.2 %)      13 (1.4 %)      20 (2.3 %)
                22 (2.3 %)      25 (2.3 %)      30 (9.7 %)      33 (79.9 %)
                35 (1.4 %)      37 (3.5 %)      38 (1.4 %)      39 (2.5 %)
                40 (4.4 %)      41 (1.4 %)      43 (1.4 %)      44 (1.2 %)
                45 (1.6 %)      55 (3.7 %)      56 (6.5 %)      57 (1.2 %)
                59 (1.1 %)      61 (1.6 %)      68 (2.3 %)      
        Other   
Initial condition solution time: CPU = 619 us, elapsed = 622.034 us.
Intrinsic tran analysis time:    CPU = 71.326 ms, elapsed = 71.6441 ms.
Total time required for tran analysis `tran': CPU = 73.291 ms, elapsed = 73.611 ms.
Time accumulated: CPU = 3.60722 s, elapsed = 4.41035 s.
Peak resident memory used = 891 Mbytes.

finalTimeOP: writing operating point information to rawfile.

Opening the PSF file ../psf/finalTimeOP.info ...
modelParameter: writing model parameter values to rawfile.

Opening the PSF file ../psf/modelParameter.info ...
element: writing instance parameter values to rawfile.

Opening the PSF file ../psf/element.info ...
outputParameter: writing output parameter values to rawfile.

Opening the PSF file ../psf/outputParameter.info ...
designParamVals: writing netlist parameters to rawfile.

Opening the PSFASCII file ../psf/designParamVals.info ...
primitives: writing primitives to rawfile.

Opening the PSFASCII file ../psf/primitives.info.primitives ...
subckts: writing subcircuits to rawfile.

Opening the PSFASCII file ../psf/subckts.info.subckts ...

Aggregate audit (9:17:06 PM, Wed May 3, 2023):
Time used: CPU = 3.65 s, elapsed = 4.45 s, util. = 81.9%.
Time spent in licensing: elapsed = 35.7 ms.
Peak memory used = 892 Mbytes.
Simulation started at: 9:17:02 PM, Wed May 3, 2023, ended at: 9:17:06 PM, Wed May 3, 2023, with elapsed time (wall clock): 4.45 s.
spectre completes with 0 errors, 1 warning, and 1 notice.
