
Spectre (R) Circuit Simulator
Version 18.1.0.077 64bit -- 1 Aug 2018
Copyright (C) 1989-2018 Cadence Design Systems, Inc. All rights reserved worldwide. Cadence and Spectre are registered trademarks of Cadence Design Systems, Inc. All others are the property of their respective holders.

Includes RSA BSAFE(R) Cryptographic or Security Protocol Software from RSA Security, Inc.

User: ADS+u1922268   Host: overpass.soe.warwick.ac.uk   HostID: EB0A1404   PID: 37857
Memory  available: 14.4992 GB  physical: 134.6517 GB
Linux   : Red Hat Enterprise Linux Server release 7.9 (Maipo)
CPU Type: Intel(R) Xeon(R) Gold 5220 CPU @ 2.20GHz
        Socket: Processors [Frequency] (Hyperthreaded Processor)
        0:       0 [3236.4] ( 36 ),  1 [1440.1] ( 37 ),  2 [3469.5] ( 38 )
                 3 [3603.6] ( 39 ),  4 [3726.7] ( 40 ),  5 [3458.0] ( 41 )
                 6 [2454.5] ( 42 ),  7 [1143.4] ( 43 ),  8 [2862.0] ( 44 )
                 9 [1241.1] ( 45 ), 10 [3003.0] ( 46 ), 11 [1000.1] ( 47 )
                12 [2779.8] ( 48 ), 13 [1169.2] ( 49 ), 14 [2005.4] ( 50 )
                15 [3128.1] ( 51 ), 16 [1000.0] ( 52 ), 17 [2335.9] ( 53 )
        1:      18 [1000.1] ( 54 ), 19 [1080.5] ( 55 ), 20 [3104.1] ( 56 )
                21 [2868.8] ( 57 ), 22 [1368.0] ( 58 ), 23 [3793.6] ( 59 )
                24 [3559.6] ( 60 ), 25 [1000.4] ( 61 ), 26 [2027.9] ( 62 )
                27 [1000.4] ( 63 ), 28 [1000.0] ( 64 ), 29 [1000.2] ( 65 )
                30 [1000.4] ( 66 ), 31 [1000.6] ( 67 ), 32 [1892.8] ( 68 )
                33 [1560.3] ( 69 ), 34 [1195.9] ( 70 ), 35 [1946.5] ( 71 )
        
System load averages (1min, 5min, 15min) : 0.0 %, 0.1 %, 0.1 %
Hyperthreading is enabled


Simulating `input.scs' on overpass.soe.warwick.ac.uk at 9:18:36 PM, Wed May 3, 2023 (process id: 37857).
Current working directory: /home/ADS/u1922268/es3d8/assignment/libraries/simulation/devices/nor2_pulse_tb/maestro/results/maestro/Interactive.0/1/devices:nor2_pulse_tb:1/netlist
Environment variable:
    CMI_CONFIG=/opt/Coventor/CoventorMP1.3/MEMS+6.5/runtime/cadence/skill/cmiMEMSplus
Command line:
     \
        /eda/cadence/2018-19/RHELx86/SPECTRE_18.10.077/tools.lnx86/bin/spectre  \
        -64 input.scs +escchars +log ../psf/spectre.out -format psfxl  \
        -raw ../psf +lqtimeout 900 -maxw 5 -maxn 5 -ahdllibdir  \
        /home/ADS/u1922268/es3d8/assignment/libraries/simulation/devices/nor2_pulse_tb/maestro/results/maestro/Interactive.0/sharedData/CDS/ahdl/input.ahdlSimDB  \
        +logstatus

Loading /eda/cadence/2018-19/RHELx86/SPECTRE_18.10.077/tools.lnx86/cmi/lib/64bit/5.0/libinfineon_sh.so ...
Loading /eda/cadence/2018-19/RHELx86/SPECTRE_18.10.077/tools.lnx86/cmi/lib/64bit/5.0/libphilips_o_sh.so ...
Loading /eda/cadence/2018-19/RHELx86/SPECTRE_18.10.077/tools.lnx86/cmi/lib/64bit/5.0/libphilips_sh.so ...
Loading /eda/cadence/2018-19/RHELx86/SPECTRE_18.10.077/tools.lnx86/cmi/lib/64bit/5.0/libsparam_sh.so ...
Loading /eda/cadence/2018-19/RHELx86/SPECTRE_18.10.077/tools.lnx86/cmi/lib/64bit/5.0/libstmodels_sh.so ...
Loading /opt/Coventor/CoventorMP1.3/MEMS+6.5/lib//libMEMSplusCadence_5.0.so ...
Reading file:  /home/ADS/u1922268/es3d8/assignment/libraries/simulation/devices/nor2_pulse_tb/maestro/results/maestro/Interactive.0/1/devices:nor2_pulse_tb:1/netlist/input.scs
Reading file:  /eda/cadence/2018-19/RHELx86/SPECTRE_18.10.077/tools.lnx86/spectre/etc/configs/mapsubckt.cfg
Reading file:  /eda/cadence/2018-19/RHELx86/SPECTRE_18.10.077/tools.lnx86/spectre/etc/configs/spectre.cfg
Reading file:  /eda/designKits/gpdk045_v_6_0/models/spectre/gpdk045.scs
Reading file:  /eda/designKits/gpdk045_v_6_0/models/spectre/gpdk045_mos.scs
Reading file:  /eda/designKits/gpdk045_v_6_0/models/spectre/gpdk045_diode.scs
Reading file:  /eda/designKits/gpdk045_v_6_0/models/spectre/gpdk045_bipolar.scs
Reading file:  /eda/designKits/gpdk045_v_6_0/models/spectre/gpdk045_mimcap.scs
Reading file:  /eda/designKits/gpdk045_v_6_0/models/spectre/gpdk045_moscap.scs
Reading file:  /eda/designKits/gpdk045_v_6_0/models/spectre/gpdk045_resistor.scs
Reading file:  /eda/designKits/gpdk045_v_6_0/models/spectre/gpdk045_inductor.scs
Reading file:  /eda/designKits/gpdk045_v_6_0/models/spectre/gpdk045_soa.scs
Time for NDB Parsing: CPU = 3.06895 s, elapsed = 3.15234 s.
Time accumulated: CPU = 3.08998 s, elapsed = 3.15235 s.
Peak resident memory used = 768 Mbytes.

Reading link:  /eda/cadence/2018-19/RHELx86/SPECTRE_18.10.077/tools.lnx86/spectre/etc/ahdl/discipline.h
Reading file:  /eda/cadence/2018-19/RHELx86/SPECTRE_18.10.077/tools.lnx86/spectre/etc/ahdl/disciplines.vams
Reading link:  /eda/cadence/2018-19/RHELx86/SPECTRE_18.10.077/tools.lnx86/spectre/etc/ahdl/constants.h
Reading file:  /eda/cadence/2018-19/RHELx86/SPECTRE_18.10.077/tools.lnx86/spectre/etc/ahdl/constants.vams
Opening directory /home/ADS/u1922268/es3d8/assignment/libraries/simulation/devices/nor2_pulse_tb/maestro/results/maestro/Interactive.0/sharedData/CDS/ahdl/input.ahdlSimDB (775)
Created directory /home/ADS/u1922268/es3d8/assignment/libraries/simulation/devices/nor2_pulse_tb/maestro/results/maestro/Interactive.0/sharedData/CDS/ahdl/input.ahdlSimDB/bsource_2b273e.va.bsource_2b273e.ahdlcmi/ (775)
Created directory /home/ADS/u1922268/es3d8/assignment/libraries/simulation/devices/nor2_pulse_tb/maestro/results/maestro/Interactive.0/sharedData/CDS/ahdl/input.ahdlSimDB/bsource_2b273e.va.bsource_2b273e.ahdlcmi/Linux-64/ (775)
Compiling ahdlcmi module library for bsource_2b273e.
Finished compilation in 727 ms (elapsed) for bsource_2b273e.
Installed compiled interface for bsource_2b273e.
Time for Elaboration: CPU = 348.497 ms, elapsed = 1.07617 s.
Time accumulated: CPU = 3.43858 s, elapsed = 4.22862 s.
Peak resident memory used = 887 Mbytes.


Warning from spectre during hierarchy flattening.
    WARNING (SPECTRE-17101): The value 'psf' specified using the 'checklimitdest' option will no longer be supported in future releases.


Time for EDB Visiting: CPU = 1.597 ms, elapsed = 1.60193 ms.
Time accumulated: CPU = 3.44028 s, elapsed = 4.23033 s.
Peak resident memory used = 888 Mbytes.


Global user options:
         psfversion = 1.1.0
            vabstol = 1e-06
            iabstol = 1e-12
               temp = 27
               gmin = 1e-12
             rforce = 1
           maxnotes = 5
           maxwarns = 5
             digits = 5
               cols = 80
             pivrel = 0.001
           sensfile = ../psf/sens.output
     checklimitdest = psf
               save = all
                pwr = all
             reltol = 0.001
               tnom = 27
             scalem = 1
              scale = 1

Scoped user options:

Circuit inventory:
              nodes 9
              bsim4 4     
     bsource_2b273e 4     
          capacitor 1     
            vsource 3     

Analysis and control statement inventory:
               info 7     
               tran 1     

Output statements:
             .probe 0     
           .measure 0     
               save 1     

Time for parsing: CPU = 9.222 ms, elapsed = 9.65691 ms.
Time accumulated: CPU = 3.44959 s, elapsed = 4.24007 s.
Peak resident memory used = 889 Mbytes.

~~~~~~~~~~~~~~~~~~~~~~
Pre-Simulation Summary
~~~~~~~~~~~~~~~~~~~~~~
~~~~~~~~~~~~~~~~~~~~~~

*************************************************
Transient Analysis `tran': time = (0 s -> 600 ns)
*************************************************
DC simulation time: CPU = 439 us, elapsed = 441.074 us.

Opening the PSFXL file ../psf/tran.tran.tran ...
Important parameter values:
    start = 0 s
    outputstart = 0 s
    stop = 600 ns
    step = 600 ps
    maxstep = 6 ns
    ic = all
    useprevic = no
    skipdc = no
    reltol = 100e-06
    abstol(V) = 1 uV
    abstol(I) = 1 pA
    temp = 27 C
    tnom = 27 C
    tempeffects = all
    errpreset = conservative
    method = gear2only
    lteratio = 10
    relref = alllocal
    cmin = 0 F
    gmin = 1 pS


Output and IC/nodeset summary:
                 save   3       (current)
                 save   12      (voltage)
                 others 14      

    tran: time = 15 ns        (2.5 %), step = 6 ns            (1 %)
    tran: time = 48 ns          (8 %), step = 4.5 ns       (750 m%)
    tran: time = 75.19 ns    (12.5 %), step = 4.29 ns      (715 m%)
    tran: time = 105.8 ns    (17.6 %), step = 2.172 ns     (362 m%)
    tran: time = 140.1 ns    (23.3 %), step = 6 ns            (1 %)
    tran: time = 165.9 ns    (27.6 %), step = 6 ns            (1 %)
    tran: time = 198 ns        (33 %), step = 4.059 ns     (676 m%)
    tran: time = 230.9 ns    (38.5 %), step = 6 ns            (1 %)
    tran: time = 255.8 ns    (42.6 %), step = 1.013 ns     (169 m%)
    tran: time = 288 ns        (48 %), step = 6 ns            (1 %)
    tran: time = 318.4 ns    (53.1 %), step = 4.219 ns     (703 m%)
    tran: time = 348 ns        (58 %), step = 5.556 ns     (926 m%)
    tran: time = 377.6 ns    (62.9 %), step = 6 ns            (1 %)
    tran: time = 408 ns        (68 %), step = 3.756 ns     (626 m%)
    tran: time = 436.9 ns    (72.8 %), step = 6 ns            (1 %)
    tran: time = 468.1 ns      (78 %), step = 3.139 ns     (523 m%)
    tran: time = 498 ns        (83 %), step = 4.975 ns     (829 m%)
    tran: time = 530.4 ns    (88.4 %), step = 6 ns            (1 %)
    tran: time = 559.6 ns    (93.3 %), step = 4.793 ns     (799 m%)
    tran: time = 589.6 ns    (98.3 %), step = 6 ns            (1 %)
Number of accepted tran steps =             915

Maximum value achieved for any signal of each quantity: 
V: V(I7.PM3:int_d) = 1.164 V
I: I(V0:p) = 7.047 uA

~~~~~~~~~~~~~~~~~~~~~~~~~~~~~~~~~
Post-Transient Simulation Summary
~~~~~~~~~~~~~~~~~~~~~~~~~~~~~~~~~
   -   To further speed up simulation, consider
          add ++aps on command line
   -   Non-default settings that could significantly slow down simulation
          errpreset = conservative, default moderate
~~~~~~~~~~~~~~~~~~~~~~~~~~~~~~~~~


During simulation, the CPU load for active processors is :
        Spectre  2 (1.9 %)       3 (1.2 %)       4 (2.4 %)       9 (4.0 %)
                11 (1.2 %)      20 (5.2 %)      25 (1.4 %)      30 (1.2 %)
                33 (81.4 %)     34 (6.6 %)      35 (1.7 %)      37 (4.5 %)
                38 (2.6 %)      39 (1.4 %)      40 (1.9 %)      41 (1.2 %)
                43 (2.6 %)      45 (1.4 %)      47 (1.4 %)      55 (4.7 %)
                56 (2.8 %)      57 (1.7 %)      58 (1.2 %)      66 (1.4 %)
                69 (1.2 %)      
        Other   
Initial condition solution time: CPU = 494 us, elapsed = 494.957 us.
Intrinsic tran analysis time:    CPU = 53.508 ms, elapsed = 53.869 ms.
Total time required for tran analysis `tran': CPU = 55.551 ms, elapsed = 55.9151 ms.
Time accumulated: CPU = 3.52035 s, elapsed = 4.31123 s.
Peak resident memory used = 891 Mbytes.

finalTimeOP: writing operating point information to rawfile.

Opening the PSF file ../psf/finalTimeOP.info ...
modelParameter: writing model parameter values to rawfile.

Opening the PSF file ../psf/modelParameter.info ...
element: writing instance parameter values to rawfile.

Opening the PSF file ../psf/element.info ...
outputParameter: writing output parameter values to rawfile.

Opening the PSF file ../psf/outputParameter.info ...
designParamVals: writing netlist parameters to rawfile.

Opening the PSFASCII file ../psf/designParamVals.info ...
primitives: writing primitives to rawfile.

Opening the PSFASCII file ../psf/primitives.info.primitives ...
subckts: writing subcircuits to rawfile.

Opening the PSFASCII file ../psf/subckts.info.subckts ...

Aggregate audit (9:18:40 PM, Wed May 3, 2023):
Time used: CPU = 3.55 s, elapsed = 4.35 s, util. = 81.8%.
Time spent in licensing: elapsed = 39 ms.
Peak memory used = 892 Mbytes.
Simulation started at: 9:18:36 PM, Wed May 3, 2023, ended at: 9:18:40 PM, Wed May 3, 2023, with elapsed time (wall clock): 4.35 s.
spectre completes with 0 errors, 1 warning, and 0 notices.
