
Spectre (R) Circuit Simulator
Version 18.1.0.077 64bit -- 1 Aug 2018
Copyright (C) 1989-2018 Cadence Design Systems, Inc. All rights reserved worldwide. Cadence and Spectre are registered trademarks of Cadence Design Systems, Inc. All others are the property of their respective holders.

Includes RSA BSAFE(R) Cryptographic or Security Protocol Software from RSA Security, Inc.

User: ADS+u1922268   Host: overpass.soe.warwick.ac.uk   HostID: EB0A1404   PID: 5015
Memory  available: 14.2151 GB  physical: 134.6517 GB
Linux   : Red Hat Enterprise Linux Server release 7.9 (Maipo)
CPU Type: Intel(R) Xeon(R) Gold 5220 CPU @ 2.20GHz
        Socket: Processors [Frequency] (Hyperthreaded Processor)
        0:       0 [3340.1] ( 36 ),  1 [2654.5] ( 37 ),  2 [1924.5] ( 38 )
                 3 [3013.6] ( 39 ),  4 [1902.4] ( 40 ),  5 [2348.5] ( 41 )
                 6 [3428.0] ( 42 ),  7 [2099.2] ( 43 ),  8 [2824.5] ( 44 )
                 9 [2838.2] ( 45 ), 10 [2433.4] ( 46 ), 11 [3290.3] ( 47 )
                12 [3821.9] ( 48 ), 13 [3176.1] ( 49 ), 14 [1873.6] ( 50 )
                15 [2851.8] ( 51 ), 16 [3362.2] ( 52 ), 17 [1762.1] ( 53 )
        1:      18 [1534.5] ( 54 ), 19 [2567.9] ( 55 ), 20 [3753.3] ( 56 )
                21 [3600.4] ( 57 ), 22 [3464.1] ( 58 ), 23 [3506.0] ( 59 )
                24 [3685.8] ( 60 ), 25 [1030.2] ( 61 ), 26 [1000.5] ( 62 )
                27 [3048.6] ( 63 ), 28 [3063.8] ( 64 ), 29 [1000.1] ( 65 )
                30 [1536.4] ( 66 ), 31 [1000.2] ( 67 ), 32 [1000.0] ( 68 )
                33 [2170.5] ( 69 ), 34 [1703.7] ( 70 ), 35 [1052.2] ( 71 )
        
System load averages (1min, 5min, 15min) : 0.0 %, 0.0 %, 0.1 %
Hyperthreading is enabled


Simulating `input.scs' on overpass.soe.warwick.ac.uk at 2:17:16 PM, Sat May 6, 2023 (process id: 5015).
Current working directory: /home/ADS/u1922268/es3d8/assignment/libraries/simulation/devices/comparator_tb/maestro/results/maestro/Interactive.0/1/devices:comparator_tb:1/netlist
Environment variable:
    CMI_CONFIG=/opt/Coventor/CoventorMP1.3/MEMS+6.5/runtime/cadence/skill/cmiMEMSplus
Command line:
     \
        /eda/cadence/2018-19/RHELx86/SPECTRE_18.10.077/tools.lnx86/bin/spectre  \
        -64 input.scs +escchars +log ../psf/spectre.out -format psfxl  \
        -raw ../psf +lqtimeout 900 -maxw 5 -maxn 5 -ahdllibdir  \
        /home/ADS/u1922268/es3d8/assignment/libraries/simulation/devices/comparator_tb/maestro/results/maestro/Interactive.0/sharedData/CDS/ahdl/input.ahdlSimDB  \
        +logstatus

Loading /eda/cadence/2018-19/RHELx86/SPECTRE_18.10.077/tools.lnx86/cmi/lib/64bit/5.0/libinfineon_sh.so ...
Loading /eda/cadence/2018-19/RHELx86/SPECTRE_18.10.077/tools.lnx86/cmi/lib/64bit/5.0/libphilips_o_sh.so ...
Loading /eda/cadence/2018-19/RHELx86/SPECTRE_18.10.077/tools.lnx86/cmi/lib/64bit/5.0/libphilips_sh.so ...
Loading /eda/cadence/2018-19/RHELx86/SPECTRE_18.10.077/tools.lnx86/cmi/lib/64bit/5.0/libsparam_sh.so ...
Loading /eda/cadence/2018-19/RHELx86/SPECTRE_18.10.077/tools.lnx86/cmi/lib/64bit/5.0/libstmodels_sh.so ...
Loading /opt/Coventor/CoventorMP1.3/MEMS+6.5/lib//libMEMSplusCadence_5.0.so ...
Reading file:  /home/ADS/u1922268/es3d8/assignment/libraries/simulation/devices/comparator_tb/maestro/results/maestro/Interactive.0/1/devices:comparator_tb:1/netlist/input.scs
Reading file:  /eda/cadence/2018-19/RHELx86/SPECTRE_18.10.077/tools.lnx86/spectre/etc/configs/mapsubckt.cfg
Reading file:  /eda/cadence/2018-19/RHELx86/SPECTRE_18.10.077/tools.lnx86/spectre/etc/configs/spectre.cfg
Reading file:  /eda/designKits/gpdk045_v_6_0/models/spectre/gpdk045.scs
Reading file:  /eda/designKits/gpdk045_v_6_0/models/spectre/gpdk045_mos.scs
Reading file:  /eda/designKits/gpdk045_v_6_0/models/spectre/gpdk045_diode.scs
Reading file:  /eda/designKits/gpdk045_v_6_0/models/spectre/gpdk045_bipolar.scs
Reading file:  /eda/designKits/gpdk045_v_6_0/models/spectre/gpdk045_mimcap.scs
Reading file:  /eda/designKits/gpdk045_v_6_0/models/spectre/gpdk045_moscap.scs
Reading file:  /eda/designKits/gpdk045_v_6_0/models/spectre/gpdk045_resistor.scs
Reading file:  /eda/designKits/gpdk045_v_6_0/models/spectre/gpdk045_inductor.scs
Reading file:  /eda/designKits/gpdk045_v_6_0/models/spectre/gpdk045_soa.scs
Time for NDB Parsing: CPU = 3.09006 s, elapsed = 3.15392 s.
Time accumulated: CPU = 3.11025 s, elapsed = 3.15393 s.
Peak resident memory used = 768 Mbytes.

Reading link:  /eda/cadence/2018-19/RHELx86/SPECTRE_18.10.077/tools.lnx86/spectre/etc/ahdl/discipline.h
Reading file:  /eda/cadence/2018-19/RHELx86/SPECTRE_18.10.077/tools.lnx86/spectre/etc/ahdl/disciplines.vams
Reading link:  /eda/cadence/2018-19/RHELx86/SPECTRE_18.10.077/tools.lnx86/spectre/etc/ahdl/constants.h
Reading file:  /eda/cadence/2018-19/RHELx86/SPECTRE_18.10.077/tools.lnx86/spectre/etc/ahdl/constants.vams
Existing shared object for module bsource_2b273e is up to date.
Installed compiled interface for bsource_2b273e.
Time for Elaboration: CPU = 370.548 ms, elapsed = 371.422 ms.
Time accumulated: CPU = 3.48092 s, elapsed = 3.52548 s.
Peak resident memory used = 881 Mbytes.


Warning from spectre during hierarchy flattening.
    WARNING (SPECTRE-17101): The value 'psf' specified using the 'checklimitdest' option will no longer be supported in future releases.


Time for EDB Visiting: CPU = 5.265 ms, elapsed = 5.27787 ms.
Time accumulated: CPU = 3.48629 s, elapsed = 3.53086 s.
Peak resident memory used = 882 Mbytes.


Global user options:
         psfversion = 1.1.0
            vabstol = 1e-06
            iabstol = 1e-12
               temp = 27
               gmin = 1e-12
             rforce = 1
           maxnotes = 5
           maxwarns = 5
             digits = 5
               cols = 80
             pivrel = 0.001
           sensfile = ../psf/sens.output
     checklimitdest = psf
               save = all
                pwr = all
             reltol = 0.001
               tnom = 27
             scalem = 1
              scale = 1

Scoped user options:

Circuit inventory:
              nodes 138
              bsim4 86    
     bsource_2b273e 86    
          capacitor 3     
            vsource 9     

Analysis and control statement inventory:
               info 7     
               tran 1     

Output statements:
             .probe 0     
           .measure 0     
               save 1     

Time for parsing: CPU = 10.924 ms, elapsed = 11.313 ms.
Time accumulated: CPU = 3.4973 s, elapsed = 3.54225 s.
Peak resident memory used = 884 Mbytes.

~~~~~~~~~~~~~~~~~~~~~~
Pre-Simulation Summary
~~~~~~~~~~~~~~~~~~~~~~
~~~~~~~~~~~~~~~~~~~~~~

************************************************
Transient Analysis `tran': time = (0 s -> 13 us)
************************************************
Trying `homotopy = gmin' for initial conditions.

Notice from spectre during IC analysis, during transient analysis `tran'.
    GminDC = 1 pS is large enough to noticeably affect the DC solution.
        dV(I17.I15.NM1:int_d) = -12.2801 mV
        Use the `gmin_check' option to eliminate or expand this report.
    Bad pivoting is found during DC analysis. Option dc_pivot_check=yes is recommended for possible improvement of convergence.

DC simulation time: CPU = 50.331 ms, elapsed = 50.4541 ms.

Opening the PSFXL file ../psf/tran.tran.tran ...
Important parameter values:
    start = 0 s
    outputstart = 0 s
    stop = 13 us
    step = 13 ns
    maxstep = 130 ns
    ic = all
    useprevic = no
    skipdc = no
    reltol = 100e-06
    abstol(V) = 1 uV
    abstol(I) = 1 pA
    temp = 27 C
    tnom = 27 C
    tempeffects = all
    errpreset = conservative
    method = gear2only
    lteratio = 10
    relref = alllocal
    cmin = 0 F
    gmin = 1 pS


Output and IC/nodeset summary:
                 save   9       (current)
                 save   321     (voltage)
                 others 284     

    tran: time = 326.5 ns    (2.51 %), step = 4.873 ns    (37.5 m%)
    tran: time = 985.4 ns    (7.58 %), step = 14.66 ns     (113 m%)
    tran: time = 1.626 us    (12.5 %), step = 4.995 ns    (38.4 m%)
    tran: time = 2.279 us    (17.5 %), step = 5.687 ns    (43.7 m%)
    tran: time = 2.936 us    (22.6 %), step = 17.88 ns     (138 m%)
    tran: time = 3.586 us    (27.6 %), step = 11.62 ns    (89.4 m%)
    tran: time = 4.225 us    (32.5 %), step = 4.948 ns    (38.1 m%)
    tran: time = 4.879 us    (37.5 %), step = 5.728 ns    (44.1 m%)
    tran: time = 5.529 us    (42.5 %), step = 14.29 ns     (110 m%)
    tran: time = 6.186 us    (47.6 %), step = 12.39 ns    (95.3 m%)
    tran: time = 6.826 us    (52.5 %), step = 5.13 ns     (39.5 m%)
    tran: time = 7.483 us    (57.6 %), step = 14.58 ns     (112 m%)
    tran: time = 8.133 us    (62.6 %), step = 16.33 ns     (126 m%)
    tran: time = 8.778 us    (67.5 %), step = 5.581 ns    (42.9 m%)
    tran: time = 9.428 us    (72.5 %), step = 5.359 ns    (41.2 m%)
    tran: time = 10.08 us    (77.5 %), step = 5.681 ns    (43.7 m%)
    tran: time = 10.73 us    (82.5 %), step = 4.661 ns    (35.9 m%)
    tran: time = 11.38 us    (87.5 %), step = 5.564 ns    (42.8 m%)
    tran: time = 12.03 us    (92.5 %), step = 5.23 ns     (40.2 m%)
    tran: time = 12.68 us    (97.5 %), step = 5.696 ns    (43.8 m%)
Number of accepted tran steps =             33117

Maximum value achieved for any signal of each quantity: 
V: V(I17.I24.PM1:int_s) = 1.389 V
I: I(V0:p) = 60.3 uA

~~~~~~~~~~~~~~~~~~~~~~~~~~~~~~~~~
Post-Transient Simulation Summary
~~~~~~~~~~~~~~~~~~~~~~~~~~~~~~~~~
   -   To further speed up simulation, consider
          add ++aps on command line
   -   Non-default settings that could significantly slow down simulation
          errpreset = conservative, default moderate
~~~~~~~~~~~~~~~~~~~~~~~~~~~~~~~~~


During simulation, the CPU load for active processors is :
        Spectre  2 (5.8 %)       4 (1.6 %)       5 (2.3 %)       8 (1.1 %)
                18 (6.6 %)      27 (87.7 %)     37 (1.5 %)      39 (1.2 %)
                55 (1.6 %)      
        Other   
Initial condition solution time: CPU = 50.362 ms, elapsed = 50.4861 ms.
Intrinsic tran analysis time:    CPU = 25.0549 s, elapsed = 25.1146 s.
Total time required for tran analysis `tran': CPU = 25.1076 s, elapsed = 25.1674 s.
Time accumulated: CPU = 29.1429 s, elapsed = 29.2489 s.
Peak resident memory used = 1.31 Gbytes.

finalTimeOP: writing operating point information to rawfile.

Opening the PSF file ../psf/finalTimeOP.info ...
modelParameter: writing model parameter values to rawfile.

Opening the PSF file ../psf/modelParameter.info ...
element: writing instance parameter values to rawfile.

Opening the PSF file ../psf/element.info ...
outputParameter: writing output parameter values to rawfile.

Opening the PSF file ../psf/outputParameter.info ...
designParamVals: writing netlist parameters to rawfile.

Opening the PSFASCII file ../psf/designParamVals.info ...
primitives: writing primitives to rawfile.

Opening the PSFASCII file ../psf/primitives.info.primitives ...
subckts: writing subcircuits to rawfile.

Opening the PSFASCII file ../psf/subckts.info.subckts ...

Aggregate audit (2:17:46 PM, Sat May 6, 2023):
Time used: CPU = 29.2 s, elapsed = 29.3 s, util. = 99.6%.
Time spent in licensing: elapsed = 33.8 ms.
Peak memory used = 1.31 Gbytes.
Simulation started at: 2:17:16 PM, Sat May 6, 2023, ended at: 2:17:46 PM, Sat May 6, 2023, with elapsed time (wall clock): 29.3 s.
spectre completes with 0 errors, 1 warning, and 2 notices.


********* LOG ENDS **************
**                             **
