
Spectre (R) Circuit Simulator
Version 18.1.0.077 64bit -- 1 Aug 2018
Copyright (C) 1989-2018 Cadence Design Systems, Inc. All rights reserved worldwide. Cadence and Spectre are registered trademarks of Cadence Design Systems, Inc. All others are the property of their respective holders.

Includes RSA BSAFE(R) Cryptographic or Security Protocol Software from RSA Security, Inc.

User: ADS+u1922268   Host: overpass.soe.warwick.ac.uk   HostID: EB0A1404   PID: 39401
Memory  available: 14.4954 GB  physical: 134.6517 GB
Linux   : Red Hat Enterprise Linux Server release 7.9 (Maipo)
CPU Type: Intel(R) Xeon(R) Gold 5220 CPU @ 2.20GHz
        Socket: Processors [Frequency] (Hyperthreaded Processor)
        0:       0 [3165.2] ( 36 ),  1 [3576.9] ( 37 ),  2 [3517.1] ( 38 )
                 3 [3576.2] ( 39 ),  4 [3429.3] ( 40 ),  5 [3229.0] ( 41 )
                 6 [1447.0] ( 42 ),  7 [2739.3] ( 43 ),  8 [3032.7] ( 44 )
                 9 [3336.1] ( 45 ), 10 [3342.6] ( 46 ), 11 [3069.2] ( 47 )
                12 [2809.8] ( 48 ), 13 [2322.9] ( 49 ), 14 [2833.9] ( 50 )
                15 [1441.9] ( 51 ), 16 [1000.0] ( 52 ), 17 [2097.9] ( 53 )
        1:      18 [1000.2] ( 54 ), 19 [1385.5] ( 55 ), 20 [3036.5] ( 56 )
                21 [3420.2] ( 57 ), 22 [1556.9] ( 58 ), 23 [2579.6] ( 59 )
                24 [1000.1] ( 60 ), 25 [3241.3] ( 61 ), 26 [3066.1] ( 62 )
                27 [2210.5] ( 63 ), 28 [2515.8] ( 64 ), 29 [1145.1] ( 65 )
                30 [1000.0] ( 66 ), 31 [1124.6] ( 67 ), 32 [2500.8] ( 68 )
                33 [2575.2] ( 69 ), 34 [3034.0] ( 70 ), 35 [1348.4] ( 71 )
        
System load averages (1min, 5min, 15min) : 0.1 %, 0.2 %, 0.1 %
Hyperthreading is enabled


Simulating `input.scs' on overpass.soe.warwick.ac.uk at 9:20:48 PM, Wed May 3, 2023 (process id: 39401).
Current working directory: /home/ADS/u1922268/es3d8/assignment/libraries/simulation/devices/nor3_pulse_tb/maestro/results/maestro/Interactive.0/1/devices:nand3_pulse_tb:1/netlist
Environment variable:
    CMI_CONFIG=/opt/Coventor/CoventorMP1.3/MEMS+6.5/runtime/cadence/skill/cmiMEMSplus
Command line:
     \
        /eda/cadence/2018-19/RHELx86/SPECTRE_18.10.077/tools.lnx86/bin/spectre  \
        -64 input.scs +escchars +log ../psf/spectre.out -format psfxl  \
        -raw ../psf +lqtimeout 900 -maxw 5 -maxn 5 -ahdllibdir  \
        /home/ADS/u1922268/es3d8/assignment/libraries/simulation/devices/nor3_pulse_tb/maestro/results/maestro/Interactive.0/sharedData/CDS/ahdl/input.ahdlSimDB  \
        +logstatus

Loading /eda/cadence/2018-19/RHELx86/SPECTRE_18.10.077/tools.lnx86/cmi/lib/64bit/5.0/libinfineon_sh.so ...
Loading /eda/cadence/2018-19/RHELx86/SPECTRE_18.10.077/tools.lnx86/cmi/lib/64bit/5.0/libphilips_o_sh.so ...
Loading /eda/cadence/2018-19/RHELx86/SPECTRE_18.10.077/tools.lnx86/cmi/lib/64bit/5.0/libphilips_sh.so ...
Loading /eda/cadence/2018-19/RHELx86/SPECTRE_18.10.077/tools.lnx86/cmi/lib/64bit/5.0/libsparam_sh.so ...
Loading /eda/cadence/2018-19/RHELx86/SPECTRE_18.10.077/tools.lnx86/cmi/lib/64bit/5.0/libstmodels_sh.so ...
Loading /opt/Coventor/CoventorMP1.3/MEMS+6.5/lib//libMEMSplusCadence_5.0.so ...
Reading file:  /home/ADS/u1922268/es3d8/assignment/libraries/simulation/devices/nor3_pulse_tb/maestro/results/maestro/Interactive.0/1/devices:nand3_pulse_tb:1/netlist/input.scs
Reading file:  /eda/cadence/2018-19/RHELx86/SPECTRE_18.10.077/tools.lnx86/spectre/etc/configs/mapsubckt.cfg
Reading file:  /eda/cadence/2018-19/RHELx86/SPECTRE_18.10.077/tools.lnx86/spectre/etc/configs/spectre.cfg
Reading file:  /eda/designKits/gpdk045_v_6_0/models/spectre/gpdk045.scs
Reading file:  /eda/designKits/gpdk045_v_6_0/models/spectre/gpdk045_mos.scs
Reading file:  /eda/designKits/gpdk045_v_6_0/models/spectre/gpdk045_diode.scs
Reading file:  /eda/designKits/gpdk045_v_6_0/models/spectre/gpdk045_bipolar.scs
Reading file:  /eda/designKits/gpdk045_v_6_0/models/spectre/gpdk045_mimcap.scs
Reading file:  /eda/designKits/gpdk045_v_6_0/models/spectre/gpdk045_moscap.scs
Reading file:  /eda/designKits/gpdk045_v_6_0/models/spectre/gpdk045_resistor.scs
Reading file:  /eda/designKits/gpdk045_v_6_0/models/spectre/gpdk045_inductor.scs
Reading file:  /eda/designKits/gpdk045_v_6_0/models/spectre/gpdk045_soa.scs
Time for NDB Parsing: CPU = 3.10238 s, elapsed = 3.18084 s.
Time accumulated: CPU = 3.12359 s, elapsed = 3.18085 s.
Peak resident memory used = 769 Mbytes.

Reading link:  /eda/cadence/2018-19/RHELx86/SPECTRE_18.10.077/tools.lnx86/spectre/etc/ahdl/discipline.h
Reading file:  /eda/cadence/2018-19/RHELx86/SPECTRE_18.10.077/tools.lnx86/spectre/etc/ahdl/disciplines.vams
Reading link:  /eda/cadence/2018-19/RHELx86/SPECTRE_18.10.077/tools.lnx86/spectre/etc/ahdl/constants.h
Reading file:  /eda/cadence/2018-19/RHELx86/SPECTRE_18.10.077/tools.lnx86/spectre/etc/ahdl/constants.vams
Opening directory /home/ADS/u1922268/es3d8/assignment/libraries/simulation/devices/nor3_pulse_tb/maestro/results/maestro/Interactive.0/sharedData/CDS/ahdl/input.ahdlSimDB (775)
Created directory /home/ADS/u1922268/es3d8/assignment/libraries/simulation/devices/nor3_pulse_tb/maestro/results/maestro/Interactive.0/sharedData/CDS/ahdl/input.ahdlSimDB/bsource_2b273e.va.bsource_2b273e.ahdlcmi/ (775)
Created directory /home/ADS/u1922268/es3d8/assignment/libraries/simulation/devices/nor3_pulse_tb/maestro/results/maestro/Interactive.0/sharedData/CDS/ahdl/input.ahdlSimDB/bsource_2b273e.va.bsource_2b273e.ahdlcmi/Linux-64/ (775)
Compiling ahdlcmi module library for bsource_2b273e.
Finished compilation in 731 ms (elapsed) for bsource_2b273e.
Installed compiled interface for bsource_2b273e.
Time for Elaboration: CPU = 349.102 ms, elapsed = 1.08079 s.
Time accumulated: CPU = 3.47279 s, elapsed = 4.26174 s.
Peak resident memory used = 888 Mbytes.


Warning from spectre during hierarchy flattening.
    WARNING (SPECTRE-17101): The value 'psf' specified using the 'checklimitdest' option will no longer be supported in future releases.


Time for EDB Visiting: CPU = 2.081 ms, elapsed = 2.08592 ms.
Time accumulated: CPU = 3.47499 s, elapsed = 4.26394 s.
Peak resident memory used = 888 Mbytes.


Global user options:
         psfversion = 1.1.0
            vabstol = 1e-06
            iabstol = 1e-12
               temp = 27
               gmin = 1e-12
             rforce = 1
           maxnotes = 5
           maxwarns = 5
             digits = 5
               cols = 80
             pivrel = 0.001
           sensfile = ../psf/sens.output
     checklimitdest = psf
               save = all
                pwr = all
             reltol = 0.001
               tnom = 27
             scalem = 1
              scale = 1

Scoped user options:

Circuit inventory:
              nodes 13
              bsim4 6     
     bsource_2b273e 6     
          capacitor 1     
            vsource 4     

Analysis and control statement inventory:
               info 7     
               tran 1     

Output statements:
             .probe 0     
           .measure 0     
               save 1     

Time for parsing: CPU = 9.2 ms, elapsed = 9.54819 ms.
Time accumulated: CPU = 3.48427 s, elapsed = 4.27357 s.
Peak resident memory used = 890 Mbytes.

~~~~~~~~~~~~~~~~~~~~~~
Pre-Simulation Summary
~~~~~~~~~~~~~~~~~~~~~~
~~~~~~~~~~~~~~~~~~~~~~

*************************************************
Transient Analysis `tran': time = (0 s -> 700 ns)
*************************************************
DC simulation time: CPU = 562 us, elapsed = 564.098 us.

Opening the PSFXL file ../psf/tran.tran.tran ...
Important parameter values:
    start = 0 s
    outputstart = 0 s
    stop = 700 ns
    step = 700 ps
    maxstep = 7 ns
    ic = all
    useprevic = no
    skipdc = no
    reltol = 100e-06
    abstol(V) = 1 uV
    abstol(I) = 1 pA
    temp = 27 C
    tnom = 27 C
    tempeffects = all
    errpreset = conservative
    method = gear2only
    lteratio = 10
    relref = alllocal
    cmin = 0 F
    gmin = 1 pS


Output and IC/nodeset summary:
                 save   4       (current)
                 save   29      (voltage)
                 others 20      

    tran: time = 17.5 ns      (2.5 %), step = 7 ns            (1 %)
    tran: time = 53.08 ns    (7.58 %), step = 657 ps      (93.9 m%)
    tran: time = 92.44 ns    (13.2 %), step = 7 ns            (1 %)
    tran: time = 122.7 ns    (17.5 %), step = 2.169 ns     (310 m%)
    tran: time = 158 ns      (22.6 %), step = 3.995 ns     (571 m%)
    tran: time = 193 ns      (27.6 %), step = 7 ns            (1 %)
    tran: time = 230.3 ns    (32.9 %), step = 7 ns            (1 %)
    tran: time = 266.6 ns    (38.1 %), step = 7 ns            (1 %)
    tran: time = 298 ns      (42.6 %), step = 5.186 ns     (741 m%)
    tran: time = 335.5 ns    (47.9 %), step = 7 ns            (1 %)
    tran: time = 370.5 ns    (52.9 %), step = 3.518 ns     (503 m%)
    tran: time = 403.4 ns    (57.6 %), step = 1.675 ns     (239 m%)
    tran: time = 442.5 ns    (63.2 %), step = 7 ns            (1 %)
    tran: time = 476.5 ns    (68.1 %), step = 4.516 ns     (645 m%)
    tran: time = 508 ns      (72.6 %), step = 3.428 ns     (490 m%)
    tran: time = 543.7 ns    (77.7 %), step = 5.848 ns     (835 m%)
    tran: time = 580.4 ns    (82.9 %), step = 7 ns            (1 %)
    tran: time = 613.4 ns    (87.6 %), step = 1.697 ns     (242 m%)
    tran: time = 648 ns      (92.6 %), step = 5.198 ns     (743 m%)
    tran: time = 687.5 ns    (98.2 %), step = 7 ns            (1 %)
Number of accepted tran steps =             974

Maximum value achieved for any signal of each quantity: 
V: V(I8.PM0:int_d) = 1.164 V
I: I(V0:p) = 7.329 uA

~~~~~~~~~~~~~~~~~~~~~~~~~~~~~~~~~
Post-Transient Simulation Summary
~~~~~~~~~~~~~~~~~~~~~~~~~~~~~~~~~
   -   To further speed up simulation, consider
          add ++aps on command line
   -   Non-default settings that could significantly slow down simulation
          errpreset = conservative, default moderate
~~~~~~~~~~~~~~~~~~~~~~~~~~~~~~~~~


During simulation, the CPU load for active processors is :
        Spectre  1 (1.9 %)       3 (4.6 %)       6 (1.9 %)       8 (2.3 %)
                11 (1.2 %)      12 (10.3 %)     14 (1.2 %)      19 (1.9 %)
                20 (2.1 %)      33 (5.1 %)      36 (1.2 %)      37 (4.0 %)
                38 (1.6 %)      39 (2.3 %)      40 (1.6 %)      42 (3.5 %)
                43 (2.4 %)      44 (11.4 %)     46 (5.3 %)      55 (3.5 %)
                56 (7.5 %)      57 (1.4 %)      59 (1.2 %)      60 (1.9 %)
                61 (1.2 %)      62 (1.2 %)      69 (79.1 %)     
        Other   
Initial condition solution time: CPU = 605 us, elapsed = 607.014 us.
Intrinsic tran analysis time:    CPU = 77.513 ms, elapsed = 77.873 ms.
Total time required for tran analysis `tran': CPU = 79.673 ms, elapsed = 80.0338 ms.
Time accumulated: CPU = 3.58375 s, elapsed = 4.37346 s.
Peak resident memory used = 892 Mbytes.

finalTimeOP: writing operating point information to rawfile.

Opening the PSF file ../psf/finalTimeOP.info ...
modelParameter: writing model parameter values to rawfile.

Opening the PSF file ../psf/modelParameter.info ...
element: writing instance parameter values to rawfile.

Opening the PSF file ../psf/element.info ...
outputParameter: writing output parameter values to rawfile.

Opening the PSF file ../psf/outputParameter.info ...
designParamVals: writing netlist parameters to rawfile.

Opening the PSFASCII file ../psf/designParamVals.info ...
primitives: writing primitives to rawfile.

Opening the PSFASCII file ../psf/primitives.info.primitives ...
subckts: writing subcircuits to rawfile.

Opening the PSFASCII file ../psf/subckts.info.subckts ...

Aggregate audit (9:20:52 PM, Wed May 3, 2023):
Time used: CPU = 3.62 s, elapsed = 4.41 s, util. = 82.1%.
Time spent in licensing: elapsed = 36.8 ms.
Peak memory used = 892 Mbytes.
Simulation started at: 9:20:48 PM, Wed May 3, 2023, ended at: 9:20:52 PM, Wed May 3, 2023, with elapsed time (wall clock): 4.41 s.
spectre completes with 0 errors, 1 warning, and 0 notices.


********* LOG ENDS **************
**                             **
